file 425547 1720029723                                          
version 2
run General-0-20240703-17:52:50-3353
attr configname General
attr datetime 20240703-17:52:50
attr experiment General
attr inifile omnetpp.ini
attr iterationvars ""
attr iterationvarsf ""
attr measurement ""
attr network ddossimo.simulations.RSUmessage.RSUExampleScenario
attr processid 3353
attr repetition 0
attr replication #0
attr resultdir results
attr runnumber 0
attr seedset 0
param *.car[*].numAttackPackets 1000
param *.car[*].attackInterval 0.1s
param **.car[*].pdrSignal.statistics true
param **.car[*].delaySignal.statistics true
param **.car[*].throughputSignal.statistics true
param **.car[*].collisionRateSignal.statistics true
param *.playgroundSizeX 2500m
param *.playgroundSizeY 2500m
param *.playgroundSizeZ 50m
param *.annotations.draw true
param *.obstacles.obstacles "xmldoc(\"config.xml\", \"//AnalogueModel[@type='SimpleObstacleShadowing']/obstacles\")"
param *.manager.updateInterval 1s
param *.manager.host "\"localhost\""
param *.manager.port 9999
param *.manager.autoShutdown true
param *.manager.launchConfig "xmldoc(\"erlangen.launchd.xml\")"
param *.rsu[0].mobility.x 2000
param *.rsu[0].mobility.y 2000
param *.rsu[0].mobility.z 3
param *.rsu[*].applType "\"TraCIDemoRSU11p\""
param *.rsu[*].appl.headerLength "80 bit"
param *.rsu[*].appl.sendBeacons false
param *.rsu[*].appl.dataOnSch false
param *.rsu[*].appl.beaconInterval 1s
param *.rsu[*].appl.beaconUserPriority 7
param *.rsu[*].appl.dataUserPriority 5
param *.rsu[*].nic.phy80211p.antennaOffsetZ "0 m"
param *.connectionManager.sendDirect true
param *.connectionManager.maxInterfDist 2600m
param *.connectionManager.drawMaxIntfDist false
param *.**.nic.mac1609_4.useServiceChannel false
param *.**.nic.mac1609_4.txPower 20mW
param *.**.nic.mac1609_4.bitrate 6Mbps
param *.**.nic.phy80211p.minPowerLevel -110dBm
param *.**.nic.phy80211p.useNoiseFloor true
param *.**.nic.phy80211p.noiseFloor -98dBm
param *.**.nic.phy80211p.decider "xmldoc(\"config.xml\")"
param *.**.nic.phy80211p.analogueModels "xmldoc(\"config.xml\")"
param *.**.nic.phy80211p.usePropagationDelay true
param *.**.nic.phy80211p.antenna "xmldoc(\"antenna.xml\", \"/root/Antenna[@id='monopole']\")"
param *.node[*].nic.phy80211p.antennaOffsetY "0 m"
param *.node[*].nic.phy80211p.antennaOffsetZ "1.895 m"
param *.node[*].applType "\"TraCIDemo11p\""
param *.node[*].appl.headerLength "80 bit"
param *.node[*].appl.sendBeacons false
param *.node[*].appl.dataOnSch false
param *.node[*].appl.beaconInterval 1s
param *.node[*].veinsmobility.x 0
param *.node[*].veinsmobility.y 0
param *.node[*].veinsmobility.z 0
param *.node[*].veinsmobility.setHostSpeed false
param *.node[*0].veinsmobility.accidentCount 1
param *.node[*0].veinsmobility.accidentStart 120s
param *.node[*0].veinsmobility.accidentDuration 50s
param *.numCars 20

vector 0 RSUExampleScenario.node[0].veinsmobility posx ETV
vector 1 RSUExampleScenario.node[0].veinsmobility posy ETV
vector 2 RSUExampleScenario.node[0].veinsmobility speed ETV
vector 3 RSUExampleScenario.node[0].veinsmobility acceleration ETV
vector 4 RSUExampleScenario.node[0].veinsmobility co2emission ETV
vector 5 RSUExampleScenario.node[1].veinsmobility posx ETV
vector 6 RSUExampleScenario.node[1].veinsmobility posy ETV
vector 7 RSUExampleScenario.node[1].veinsmobility speed ETV
vector 8 RSUExampleScenario.node[1].veinsmobility acceleration ETV
vector 9 RSUExampleScenario.node[1].veinsmobility co2emission ETV
vector 10 RSUExampleScenario.node[2].veinsmobility posx ETV
vector 11 RSUExampleScenario.node[2].veinsmobility posy ETV
vector 12 RSUExampleScenario.node[2].veinsmobility speed ETV
vector 13 RSUExampleScenario.node[2].veinsmobility acceleration ETV
vector 14 RSUExampleScenario.node[2].veinsmobility co2emission ETV
vector 15 RSUExampleScenario.node[3].veinsmobility posx ETV
vector 16 RSUExampleScenario.node[3].veinsmobility posy ETV
vector 17 RSUExampleScenario.node[3].veinsmobility speed ETV
vector 18 RSUExampleScenario.node[3].veinsmobility acceleration ETV
vector 19 RSUExampleScenario.node[3].veinsmobility co2emission ETV
vector 20 RSUExampleScenario.node[4].veinsmobility posx ETV
vector 21 RSUExampleScenario.node[4].veinsmobility posy ETV
vector 22 RSUExampleScenario.node[4].veinsmobility speed ETV
vector 23 RSUExampleScenario.node[4].veinsmobility acceleration ETV
vector 24 RSUExampleScenario.node[4].veinsmobility co2emission ETV
vector 25 RSUExampleScenario.node[5].veinsmobility posx ETV
vector 26 RSUExampleScenario.node[5].veinsmobility posy ETV
vector 27 RSUExampleScenario.node[5].veinsmobility speed ETV
vector 28 RSUExampleScenario.node[5].veinsmobility acceleration ETV
vector 29 RSUExampleScenario.node[5].veinsmobility co2emission ETV
vector 30 RSUExampleScenario.node[6].veinsmobility posx ETV
vector 31 RSUExampleScenario.node[6].veinsmobility posy ETV
vector 32 RSUExampleScenario.node[6].veinsmobility speed ETV
vector 33 RSUExampleScenario.node[6].veinsmobility acceleration ETV
vector 34 RSUExampleScenario.node[6].veinsmobility co2emission ETV
vector 35 RSUExampleScenario.node[7].veinsmobility posx ETV
vector 36 RSUExampleScenario.node[7].veinsmobility posy ETV
vector 37 RSUExampleScenario.node[7].veinsmobility speed ETV
vector 38 RSUExampleScenario.node[7].veinsmobility acceleration ETV
vector 39 RSUExampleScenario.node[7].veinsmobility co2emission ETV
vector 40 RSUExampleScenario.node[8].veinsmobility posx ETV
vector 41 RSUExampleScenario.node[8].veinsmobility posy ETV
vector 42 RSUExampleScenario.node[8].veinsmobility speed ETV
vector 43 RSUExampleScenario.node[8].veinsmobility acceleration ETV
vector 44 RSUExampleScenario.node[8].veinsmobility co2emission ETV
vector 45 RSUExampleScenario.node[9].veinsmobility posx ETV
vector 46 RSUExampleScenario.node[9].veinsmobility posy ETV
vector 47 RSUExampleScenario.node[9].veinsmobility speed ETV
vector 48 RSUExampleScenario.node[9].veinsmobility acceleration ETV
vector 49 RSUExampleScenario.node[9].veinsmobility co2emission ETV
vector 50 RSUExampleScenario.node[10].veinsmobility posx ETV
vector 51 RSUExampleScenario.node[10].veinsmobility posy ETV
vector 52 RSUExampleScenario.node[10].veinsmobility speed ETV
vector 53 RSUExampleScenario.node[10].veinsmobility acceleration ETV
vector 54 RSUExampleScenario.node[10].veinsmobility co2emission ETV
vector 55 RSUExampleScenario.node[11].veinsmobility posx ETV
vector 56 RSUExampleScenario.node[11].veinsmobility posy ETV
vector 57 RSUExampleScenario.node[11].veinsmobility speed ETV
vector 58 RSUExampleScenario.node[11].veinsmobility acceleration ETV
vector 59 RSUExampleScenario.node[11].veinsmobility co2emission ETV
vector 60 RSUExampleScenario.node[12].veinsmobility posx ETV
vector 61 RSUExampleScenario.node[12].veinsmobility posy ETV
vector 62 RSUExampleScenario.node[12].veinsmobility speed ETV
vector 63 RSUExampleScenario.node[12].veinsmobility acceleration ETV
vector 64 RSUExampleScenario.node[12].veinsmobility co2emission ETV
vector 65 RSUExampleScenario.node[13].veinsmobility posx ETV
vector 66 RSUExampleScenario.node[13].veinsmobility posy ETV
vector 67 RSUExampleScenario.node[13].veinsmobility speed ETV
vector 68 RSUExampleScenario.node[13].veinsmobility acceleration ETV
vector 69 RSUExampleScenario.node[13].veinsmobility co2emission ETV
vector 70 RSUExampleScenario.node[14].veinsmobility posx ETV
vector 71 RSUExampleScenario.node[14].veinsmobility posy ETV
vector 72 RSUExampleScenario.node[14].veinsmobility speed ETV
vector 73 RSUExampleScenario.node[14].veinsmobility acceleration ETV
vector 74 RSUExampleScenario.node[14].veinsmobility co2emission ETV
vector 75 RSUExampleScenario.node[15].veinsmobility posx ETV
vector 76 RSUExampleScenario.node[15].veinsmobility posy ETV
vector 77 RSUExampleScenario.node[15].veinsmobility speed ETV
vector 78 RSUExampleScenario.node[15].veinsmobility acceleration ETV
vector 79 RSUExampleScenario.node[15].veinsmobility co2emission ETV
vector 80 RSUExampleScenario.node[16].veinsmobility posx ETV
vector 81 RSUExampleScenario.node[16].veinsmobility posy ETV
vector 82 RSUExampleScenario.node[16].veinsmobility speed ETV
vector 83 RSUExampleScenario.node[16].veinsmobility acceleration ETV
vector 84 RSUExampleScenario.node[16].veinsmobility co2emission ETV
vector 85 RSUExampleScenario.node[17].veinsmobility posx ETV
vector 86 RSUExampleScenario.node[17].veinsmobility posy ETV
vector 87 RSUExampleScenario.node[17].veinsmobility speed ETV
vector 88 RSUExampleScenario.node[17].veinsmobility acceleration ETV
vector 89 RSUExampleScenario.node[17].veinsmobility co2emission ETV
vector 90 RSUExampleScenario.node[18].veinsmobility posx ETV
vector 91 RSUExampleScenario.node[18].veinsmobility posy ETV
vector 92 RSUExampleScenario.node[18].veinsmobility speed ETV
vector 93 RSUExampleScenario.node[18].veinsmobility acceleration ETV
vector 94 RSUExampleScenario.node[18].veinsmobility co2emission ETV
vector 95 RSUExampleScenario.node[19].veinsmobility posx ETV
vector 96 RSUExampleScenario.node[19].veinsmobility posy ETV
vector 97 RSUExampleScenario.node[19].veinsmobility speed ETV
vector 98 RSUExampleScenario.node[19].veinsmobility acceleration ETV
vector 99 RSUExampleScenario.node[19].veinsmobility co2emission ETV
vector 100 RSUExampleScenario.node[20].veinsmobility posx ETV
vector 101 RSUExampleScenario.node[20].veinsmobility posy ETV
vector 102 RSUExampleScenario.node[20].veinsmobility speed ETV
vector 103 RSUExampleScenario.node[20].veinsmobility acceleration ETV
vector 104 RSUExampleScenario.node[20].veinsmobility co2emission ETV
vector 105 RSUExampleScenario.node[21].veinsmobility posx ETV
vector 106 RSUExampleScenario.node[21].veinsmobility posy ETV
vector 107 RSUExampleScenario.node[21].veinsmobility speed ETV
vector 108 RSUExampleScenario.node[21].veinsmobility acceleration ETV
vector 109 RSUExampleScenario.node[21].veinsmobility co2emission ETV
vector 110 RSUExampleScenario.node[22].veinsmobility posx ETV
vector 111 RSUExampleScenario.node[22].veinsmobility posy ETV
vector 112 RSUExampleScenario.node[22].veinsmobility speed ETV
vector 113 RSUExampleScenario.node[22].veinsmobility acceleration ETV
vector 114 RSUExampleScenario.node[22].veinsmobility co2emission ETV
vector 115 RSUExampleScenario.node[23].veinsmobility posx ETV
vector 116 RSUExampleScenario.node[23].veinsmobility posy ETV
vector 117 RSUExampleScenario.node[23].veinsmobility speed ETV
vector 118 RSUExampleScenario.node[23].veinsmobility acceleration ETV
vector 119 RSUExampleScenario.node[23].veinsmobility co2emission ETV
vector 120 RSUExampleScenario.node[24].veinsmobility posx ETV
vector 121 RSUExampleScenario.node[24].veinsmobility posy ETV
vector 122 RSUExampleScenario.node[24].veinsmobility speed ETV
vector 123 RSUExampleScenario.node[24].veinsmobility acceleration ETV
vector 124 RSUExampleScenario.node[24].veinsmobility co2emission ETV
vector 125 RSUExampleScenario.node[25].veinsmobility posx ETV
vector 126 RSUExampleScenario.node[25].veinsmobility posy ETV
vector 127 RSUExampleScenario.node[25].veinsmobility speed ETV
vector 128 RSUExampleScenario.node[25].veinsmobility acceleration ETV
vector 129 RSUExampleScenario.node[25].veinsmobility co2emission ETV
vector 130 RSUExampleScenario.node[26].veinsmobility posx ETV
vector 131 RSUExampleScenario.node[26].veinsmobility posy ETV
vector 132 RSUExampleScenario.node[26].veinsmobility speed ETV
vector 133 RSUExampleScenario.node[26].veinsmobility acceleration ETV
vector 134 RSUExampleScenario.node[26].veinsmobility co2emission ETV
vector 135 RSUExampleScenario.node[27].veinsmobility posx ETV
vector 136 RSUExampleScenario.node[27].veinsmobility posy ETV
vector 137 RSUExampleScenario.node[27].veinsmobility speed ETV
vector 138 RSUExampleScenario.node[27].veinsmobility acceleration ETV
vector 139 RSUExampleScenario.node[27].veinsmobility co2emission ETV
vector 140 RSUExampleScenario.node[28].veinsmobility posx ETV
vector 141 RSUExampleScenario.node[28].veinsmobility posy ETV
vector 142 RSUExampleScenario.node[28].veinsmobility speed ETV
vector 143 RSUExampleScenario.node[28].veinsmobility acceleration ETV
vector 144 RSUExampleScenario.node[28].veinsmobility co2emission ETV
vector 145 RSUExampleScenario.node[29].veinsmobility posx ETV
vector 146 RSUExampleScenario.node[29].veinsmobility posy ETV
vector 147 RSUExampleScenario.node[29].veinsmobility speed ETV
vector 148 RSUExampleScenario.node[29].veinsmobility acceleration ETV
vector 149 RSUExampleScenario.node[29].veinsmobility co2emission ETV
vector 150 RSUExampleScenario.node[30].veinsmobility posx ETV
vector 151 RSUExampleScenario.node[30].veinsmobility posy ETV
vector 152 RSUExampleScenario.node[30].veinsmobility speed ETV
vector 153 RSUExampleScenario.node[30].veinsmobility acceleration ETV
vector 154 RSUExampleScenario.node[30].veinsmobility co2emission ETV
vector 155 RSUExampleScenario.node[31].veinsmobility posx ETV
vector 156 RSUExampleScenario.node[31].veinsmobility posy ETV
vector 157 RSUExampleScenario.node[31].veinsmobility speed ETV
vector 158 RSUExampleScenario.node[31].veinsmobility acceleration ETV
vector 159 RSUExampleScenario.node[31].veinsmobility co2emission ETV
vector 160 RSUExampleScenario.node[32].veinsmobility posx ETV
vector 161 RSUExampleScenario.node[32].veinsmobility posy ETV
vector 162 RSUExampleScenario.node[32].veinsmobility speed ETV
vector 163 RSUExampleScenario.node[32].veinsmobility acceleration ETV
vector 164 RSUExampleScenario.node[32].veinsmobility co2emission ETV
vector 165 RSUExampleScenario.node[33].veinsmobility posx ETV
vector 166 RSUExampleScenario.node[33].veinsmobility posy ETV
vector 167 RSUExampleScenario.node[33].veinsmobility speed ETV
vector 168 RSUExampleScenario.node[33].veinsmobility acceleration ETV
vector 169 RSUExampleScenario.node[33].veinsmobility co2emission ETV
vector 170 RSUExampleScenario.node[34].veinsmobility posx ETV
vector 171 RSUExampleScenario.node[34].veinsmobility posy ETV
vector 172 RSUExampleScenario.node[34].veinsmobility speed ETV
vector 173 RSUExampleScenario.node[34].veinsmobility acceleration ETV
vector 174 RSUExampleScenario.node[34].veinsmobility co2emission ETV
vector 175 RSUExampleScenario.node[35].veinsmobility posx ETV
vector 176 RSUExampleScenario.node[35].veinsmobility posy ETV
vector 177 RSUExampleScenario.node[35].veinsmobility speed ETV
vector 178 RSUExampleScenario.node[35].veinsmobility acceleration ETV
vector 179 RSUExampleScenario.node[35].veinsmobility co2emission ETV
vector 180 RSUExampleScenario.node[36].veinsmobility posx ETV
vector 181 RSUExampleScenario.node[36].veinsmobility posy ETV
vector 182 RSUExampleScenario.node[36].veinsmobility speed ETV
vector 183 RSUExampleScenario.node[36].veinsmobility acceleration ETV
vector 184 RSUExampleScenario.node[36].veinsmobility co2emission ETV
vector 185 RSUExampleScenario.node[37].veinsmobility posx ETV
vector 186 RSUExampleScenario.node[37].veinsmobility posy ETV
vector 187 RSUExampleScenario.node[37].veinsmobility speed ETV
vector 188 RSUExampleScenario.node[37].veinsmobility acceleration ETV
vector 189 RSUExampleScenario.node[37].veinsmobility co2emission ETV
vector 190 RSUExampleScenario.node[38].veinsmobility posx ETV
vector 191 RSUExampleScenario.node[38].veinsmobility posy ETV
vector 192 RSUExampleScenario.node[38].veinsmobility speed ETV
vector 193 RSUExampleScenario.node[38].veinsmobility acceleration ETV
vector 194 RSUExampleScenario.node[38].veinsmobility co2emission ETV
vector 195 RSUExampleScenario.node[39].veinsmobility posx ETV
vector 196 RSUExampleScenario.node[39].veinsmobility posy ETV
vector 197 RSUExampleScenario.node[39].veinsmobility speed ETV
vector 198 RSUExampleScenario.node[39].veinsmobility acceleration ETV
vector 199 RSUExampleScenario.node[39].veinsmobility co2emission ETV
vector 200 RSUExampleScenario.node[40].veinsmobility posx ETV
vector 201 RSUExampleScenario.node[40].veinsmobility posy ETV
vector 202 RSUExampleScenario.node[40].veinsmobility speed ETV
vector 203 RSUExampleScenario.node[40].veinsmobility acceleration ETV
vector 204 RSUExampleScenario.node[40].veinsmobility co2emission ETV
vector 205 RSUExampleScenario.node[41].veinsmobility posx ETV
vector 206 RSUExampleScenario.node[41].veinsmobility posy ETV
vector 207 RSUExampleScenario.node[41].veinsmobility speed ETV
vector 208 RSUExampleScenario.node[41].veinsmobility acceleration ETV
vector 209 RSUExampleScenario.node[41].veinsmobility co2emission ETV
vector 210 RSUExampleScenario.node[42].veinsmobility posx ETV
vector 211 RSUExampleScenario.node[42].veinsmobility posy ETV
vector 212 RSUExampleScenario.node[42].veinsmobility speed ETV
vector 213 RSUExampleScenario.node[42].veinsmobility acceleration ETV
vector 214 RSUExampleScenario.node[42].veinsmobility co2emission ETV
vector 215 RSUExampleScenario.node[43].veinsmobility posx ETV
vector 216 RSUExampleScenario.node[43].veinsmobility posy ETV
vector 217 RSUExampleScenario.node[43].veinsmobility speed ETV
vector 218 RSUExampleScenario.node[43].veinsmobility acceleration ETV
vector 219 RSUExampleScenario.node[43].veinsmobility co2emission ETV
vector 220 RSUExampleScenario.node[44].veinsmobility posx ETV
vector 221 RSUExampleScenario.node[44].veinsmobility posy ETV
vector 222 RSUExampleScenario.node[44].veinsmobility speed ETV
vector 223 RSUExampleScenario.node[44].veinsmobility acceleration ETV
vector 224 RSUExampleScenario.node[44].veinsmobility co2emission ETV
vector 225 RSUExampleScenario.node[45].veinsmobility posx ETV
vector 226 RSUExampleScenario.node[45].veinsmobility posy ETV
0	17428 3298 2 3427 1 136 136 1676.035227754 2450.6248001783 290405.32737382 631269577.91308
1	20726 3311 2 3427 1 136 136 1578.4613427464 2120.9360540062 250984.59079383 467875632.62785
2	24037 3109 3 3427 2 136 135 0 13.999815066161 1600.6083216017 21636.352323393
3	27146 3309 4 3427 3 136 134 -4.5 2.2078255666373 -4.1061966058897 158.56023406183
4	30455 3075 4 3427 3 136 134 0.973 8.9023657158011 309.43245203879 1020.1423341901
5	33530 3243 5 3427 4 136 133 1568.8176315482 2450.4780716181 284874.93749471 621303432.73786
6	36773 3237 5 3427 4 136 133 1504.2968318472 2120.5707901428 245596.1396051 458367476.42554
7	40010 3222 6 3427 5 136 132 4.0332649588119 13.999323605334 1759.4268607024 23855.917227986
8	43232 3495 7 3427 6 136 131 -4.4892687861132 2.0988350649318 9.8784699806199 104.46928709914
9	46727 3147 7 3427 6 136 131 0.973 8.7525284671264 325.27123690023 1129.1480041838
10	49874 3306 8 3427 7 136 130 1597.363089393 2450.659299592 279998.31477783 613259673.38567
11	53180 3303 8 3427 7 136 130 1533.1121522132 2120.9589145361 241038.78358965 451442032.11343
12	56483 3287 9 3427 8 136 129 3.930963162637 13.998776619676 1718.0072622995 23267.034493113
13	59770 3549 10 3427 9 136 128 -4.4962264973393 2.0878022219194 10.063384067096 105.17828518055
14	63319 3188 10 3427 9 136 128 0.973 8.2469806235914 320.75170835319 1120.0044062608
15	66507 3239 11 3427 10 136 127 1624.5663081928 2450.5176811377 275134.20969769 605324316.72514
16	69746 3244 11 3427 10 136 127 1564.9799377443 2120.90069908 236460.01368528 444482571.15035
17	72990 3217 12 3427 11 136 126 4.0076977833542 13.999869057706 1675.9664260271 22685.350885956
18	76207 3455 13 3427 12 136 125 -4.5 2.1600366940722 9.8996417260245 112.50933474608
19	79662 3106 13 3427 12 136 125 0.973 8.3694083781091 317.21953990217 1137.1335486571
20	82768 3169 14 3427 13 136 124 1670.0470950587 2450.2645866362 271395.85893435 602013497.57048
21	85937 3164 14 3427 13 136 124 1578.4413889889 2120.7883864809 231764.88028328 437104399.8208
22	89101 3144 15 3427 14 136 123 4.1202440707026 13.998402075595 1613.1861250485 21551.249987769
23	92245 3397 16 3427 15 136 122 -4.4202670209802 2.2053875824949 9.8582523530849 94.638149919413
24	95642 3057 16 3427 15 136 122 0.973 8.3105242583869 302.93464389397 1040.4791707435
25	98699 3086 17 3427 16 136 121 1691.0169784289 2450.2291497608 265891.77811381 591636886.72773
26	101785 3089 17 3427 16 136 121 1578.4544820301 2120.7722106203 227101.70005202 429964054.9013
27	104874 3057 18 3427 17 136 120 4.11254450365 13.998108282317 1580.9427076082 21256.561471694
28	107931 3306 19 3427 18 136 119 -4.1476450008758 2.2240570376068 5.6291617310391 102.23036345689
29	111237 2935 19 3427 18 136 119 0.973 8.8530434321966 292.32207786664 1010.1234901865
30	114172 3023 20 3427 19 136 118 1719.6252982562 2450.4280289282 260735.85244609 582755147.76237
31	117195 3018 20 3427 19 136 118 1578.4572625495 2120.8566767089 222008.91039954 421262604.92296
32	120213 2988 21 3427 20 136 117 4.067372106413 13.999156328384 1545.134663651 20800.74782853
33	123201 3218 22 3427 21 136 116 -4.5 2.4234314252366 9.9256069267969 95.953004234934
34	126419 2899 22 3427 21 136 116 0.973 7.9969762628647 286.02296523618 966.62420148414
35	129318 2936 23 3427 22 136 115 1805.3591965954 2450.4365012295 259052.87724269 588411441.80489
36	132254 2943 23 3427 22 136 115 1578.4561478766 2120.6614999305 217427.16694192 414494572.69796
37	135197 2920 24 3427 23 136 114 4.0608742667126 13.999109892272 1426.4406868172 18274.004741308
38	138117 3145 25 3427 24 136 113 -4.4823587748475 2.2555459074327 9.8906367340198 77.102383613841
39	141262 2850 25 3427 24 136 113 0.973 7.9715287769973 264.68961474882 825.81649145716
40	144112 2863 26 3427 25 136 112 1824.8297213537 2450.3239084678 252903.3446691 575528657.57975
41	146975 2867 26 3427 25 136 112 1578.4503688179 2120.8279265687 212498.65239879 406473276.00817
42	149842 2834 27 3427 26 136 111 4.0643546214392 13.994025596841 1398.8115124704 18067.216884135
43	152676 3037 28 3427 27 136 110 -3.3070113040032 2.2392650089366 9.8861526526981 73.157865091348
44	155713 2693 28 3427 27 136 110 0.973 8.3114076733424 263.37853445726 916.44222075242
45	158406 2788 29 3427 28 136 109 1843.4172120681 2450.5540833102 246698.38576821 562437525.90828
46	161194 2789 29 3427 28 136 109 1578.4516975414 2120.7919995487 207453.08308545 398042963.93709
47	163983 2767 30 3427 29 136 108 3.8828872453123 13.999235930033 1374.1413062096 17942.564447404
48	166750 2945 31 3427 30 136 107 -2.5256712424416 2.1636936872965 10.084172466821 71.787004856319
49	169695 2621 31 3427 30 136 107 0.973 8.3259780451779 260.85092453259 935.33840258313
50	172316 2714 32 3427 31 136 106 1860.9653742824 2450.3828549772 240389.03498961 548898110.66378
51	175030 2716 32 3427 31 136 106 1578.4486005865 2120.7039867258 202248.13490997 389035882.93127
52	177746 2687 33 3427 32 136 105 4.1947202222332 13.999046168965 1348.1098694605 17753.450230877
53	180433 2876 34 3427 33 136 104 -3.1158763178945 2.2461710704397 9.7990852748809 74.256030581976
54	183309 2568 34 3427 33 136 104 0.973 8.8976355453378 259.65334908036 938.54957532291
55	185877 2639 35 3427 34 136 103 1879.352687605 2450.2307157078 234188.60618946 535864010.75855
56	188516 2636 35 3427 34 136 103 1578.4356359942 2120.7777846977 196578.79420095 378302469.6764
57	191152 2610 36 3427 35 136 102 3.8489417596173 13.999905188144 1321.2759768443 17529.167505324
58	193762 2815 37 3427 36 136 101 -3.7792833418176 2.3961217227788 10.033154444244 74.504415199293
59	196577 2500 37 3427 36 136 101 0.973 8.73746890554 249.59868209555 881.92974858364
60	199077 2563 38 3427 37 136 100 1902.2672475927 2450.6306422632 228439.62902122 524870834.57825
61	201640 2562 38 3427 37 136 100 1578.451217806 2120.9520459101 190777.19325408 367052172.5903
62	204202 2545 39 3427 38 136 99 3.9219617499206 13.999885873478 1289.3854445379 17167.804849118
63	206747 2701 40 3427 39 136 98 -4.5 2.171357678452 9.9880672758115 73.51337382496
64	209448 2446 40 3427 39 136 98 0.973 8.7089421533914 243.75719195734 865.17692858643
65	211894 2492 41 3427 40 136 97 1926.0761487345 2450.1499671022 222470.96230337 512910482.82071
66	214386 2485 41 3427 40 136 97 1578.4448455973 2120.7260294929 185344.17476309 357192379.14095
67	216871 2462 42 3427 41 136 96 4.0161385181755 13.999926172604 1254.4849581988 16770.324860783
68	219333 2650 43 3427 42 136 95 -3.7634138144476 2.2943333165627 9.8844552987698 75.11604677604
69	221983 2361 43 3427 42 136 95 0.973 8.5606523284014 241.92406719809 871.39232695233
70	224344 2415 44 3427 43 136 94 1950.4052996632 2450.6330954138 216444.39164073 500720404.6644
71	226759 2416 44 3427 43 136 94 1578.4619682319 2120.9558397355 179831.77774746 347043404.28066
72	229175 2388 45 3427 44 136 93 3.9992962979057 13.999353741894 1221.430899984 16402.148496992
73	231563 2565 46 3427 45 136 92 -3.8456400924426 2.1980071439291 9.997884634957 80.362074745801
74	234128 2312 46 3427 45 136 92 0.973 8.7718288962126 237.11336689939 883.99628169746
75	236440 2346 47 3427 46 136 91 1980.2952578774 2450.6169209509 210561.85326586 489187789.64088
76	238786 2342 47 3427 46 136 91 1578.4567965213 2120.934805207 174149.14334944 336274586.18938
77	241128 2317 48 3427 47 136 90 4.1510441398274 13.997209177734 1180.1176094178 15836.2293417
78	243445 2487 49 3427 48 136 89 -4.4635536425416 2.0671690396545 9.7892542542189 87.113577846531
79	245932 2231 49 3427 48 136 89 0.973 8.4312780203507 230.85623851351 859.99228717143
80	248163 2266 50 3427 49 136 88 2010.2248983938 2450.5254289502 204611.63017422 477398135.82733
81	250429 2269 50 3427 49 136 88 1578.4441374587 2120.6608228572 168324.60463168 324981603.05752
82	252698 2245 51 3427 50 136 87 3.8447853377257 13.994805302613 1137.4917940587 15243.452463114
83	254943 2386 52 3427 51 136 86 -4.5 2.078282451923 10.02772705968 83.741597812705
84	257329 2161 52 3427 51 136 86 0.973 8.7472268623497 223.31647956767 821.52196597201
85	259490 2191 53 3427 52 136 85 2125.571646235 2450.3597394241 201451.33039754 478155776.04541
86	261681 2190 53 3427 52 136 85 1578.4585047252 2120.5688971151 160327.42825628 305623292.80588
87	263871 2165 54 3427 53 136 84 3.8698786158062 13.990378188035 970.16166005883 11554.628204498
88	266036 2308 55 3427 54 136 83 -4.5 2.0160195135884 7.9067787549507 61.155514075708
89	268344 2110 55 3427 54 136 83 0.973 7.7049409010919 190.68860629739 592.15134916742
90	270454 2118 56 3427 55 136 82 2139.4747458203 2450.4524190207 194672.01018074 462781863.20996
91	272572 2118 56 3427 55 136 82 1578.4678993914 2120.7316811346 154805.71133161 295328291.38727
92	274690 2094 57 3427 56 136 81 4.0700236807532 13.957018211056 947.64564183135 11431.665805365
93	276784 2230 58 3427 57 136 80 -3.293089319321 2.3297191780875 3.8168879850174 53.315841553043
94	279014 1965 58 3427 57 136 80 0.973 8.3363783621892 178.58899604478 583.64318618233
95	280979 2039 59 3427 58 136 79 2152.1384886743 2450.4624753713 187896.83606209 447437416.59543
96	283018 2046 59 3427 58 136 79 1578.4570502462 2120.8961891662 149189.60318466 284704656.9087
97	285064 2018 60 3427 59 136 78 3.8447639940612 13.971243983379 933.79790201463 11504.530824909
98	287082 2147 61 3427 60 136 77 -2.5445133379498 2.222100084126 4.5764973071797 48.071951259843
99	289229 1837 61 3427 60 136 77 0.973 8.3204552480567 174.33429759253 593.57475313639
100	291066 2046 62 3427 61 136 76 2165.6645794244 2450.3554975685 181066.09013726 431837985.36264
101	293112 2040 62 3427 61 136 76 1578.4478435991 2120.5997553328 143546.62923494 273972003.30545
102	295152 2020 63 3427 62 136 75 4.018615917157 13.970749160051 919.25848615922 11580.072016895
103	297172 2138 64 3427 63 136 74 -2.198287774594 2.1492465194734 5.0903432372513 52.969282075006
104	299310 1865 64 3427 63 136 74 0.973 8.1667304192483 176.71271882909 637.140433226
105	301175 1966 65 3427 64 136 73 2179.9924779221 2450.1610031507 174073.33940021 415473467.6823
106	303141 1969 65 3427 64 136 73 1578.4634011481 2120.7689092075 137538.60694683 261940114.9478
107	305110 1939 66 3427 65 136 72 4.2842987557744 13.993739581739 902.27409085803 11567.411375711
108	307049 2048 67 3427 66 136 71 -2.965684290064 2.279591250075 5.4064347828711 48.097665048699
109	309097 1828 67 3427 66 136 71 0.973 8.0062312204286 168.62880215794 562.18912956636
110	310925 1888 68 3427 67 136 70 2196.0928997825 2450.1550019225 167213.82541295 399755079.01702
111	312813 1892 68 3427 67 136 70 1578.4618975855 2120.9453101354 131775.72203175 250740970.63153
112	314705 1863 69 3427 68 136 69 4.1832233416825 13.990375978411 885.94028617198 11658.216546138
113	316568 1966 70 3427 69 136 68 -2.4922948446457 2.2485749843647 6.2017309187036 52.194761917223
114	318534 1741 70 3427 69 136 68 0.973 7.8311198804753 168.80436772338 617.54357198475
115	320275 1806 71 3427 70 136 67 2318.0148204084 2450.5820902542 161416.71095719 388990493.59804
116	322081 1809 71 3427 70 136 67 1578.4517848091 2120.7082483275 123059.6965308 228282234.65117
117	323890 1787 72 3427 71 136 66 4.0859593419879 13.9954915611 764.32086121137 9094.9832695789
118	325677 1898 73 3427 72 136 65 -1.8757059074481 2.0294341745344 9.8526736150976 25.352674922251
119	327575 1744 73 3427 72 136 65 0.973 7.429044537753 147.83518564599 434.15083739612
120	329319 1733 74 3427 73 136 64 2334.0507973665 2450.1930519535 154362.25499745 372397146.42891
121	331052 1737 74 3427 73 136 64 1578.4505975069 2120.8731574817 117428.64980212 217549496.52165
122	332789 1706 75 3427 74 136 63 4.0735588402093 13.963238035639 745.06829252372 9065.7372996895
123	334495 1796 76 3427 75 136 62 -1.3746847264637 2.2564944986859 9.8614939994949 33.570362889714
124	336291 1602 76 3427 75 136 62 0.973 8.3392083846763 145.75548888731 524.19301972088
125	337893 1653 77 3427 76 136 61 2334.4174806303 2450.61204914 147288.35690819 355713237.11332
126	339546 1655 77 3427 76 136 61 1578.4519604994 2120.5746393418 111764.32677012 206706348.85917
127	341201 1628 78 3427 77 136 60 4.0635240824116 13.995084378871 726.31847905833 9061.7624894906
128	342829 1717 79 3427 78 136 59 -1.5678357862427 2.0509393013455 9.8833585606535 37.738083401416
129	344546 1498 79 3427 78 136 59 0.973 8.6102118406059 145.47501905854 566.0950207172
130	346044 1580 80 3427 79 136 58 2334.9106088879 2450.245049579 140134.56597613 338650116.02286
131	347624 1578 80 3427 79 136 58 1578.4618988531 2120.7444728371 105955.38922224 195362817.77756
132	349202 1549 81 3427 80 136 57 4.0267229073465 13.995347008838 706.52790740064 9013.87391209
133	350751 1619 82 3427 81 136 56 -1.800034765683 2.108396035193 9.767427300536 37.000504175268
134	352370 1458 82 3427 81 136 56 0.973 7.9985913624082 141.60002874388 530.42210963444
135	353828 1502 83 3427 82 136 55 2334.6822450395 2450.1729110724 132934.61902174 321366561.71343
136	355330 1504 83 3427 82 136 55 1578.4479903299 2120.9215816753 100004.53682987 183480771.15863
137	356834 1476 84 3427 83 136 54 3.8169569386458 13.998507969014 687.63205564207 9039.5277658184
138	358310 1548 85 3427 84 136 53 -2.3598040740222 2.1917019801144 10.049838782511 43.086690424531
139	359858 1380 85 3427 84 136 53 0.973 7.7541670228011 142.22973704926 546.71916105305
140	361238 1426 86 3427 85 136 52 2334.4833669321 2450.3908839365 125711.77815863 303976072.9644
141	362664 1423 86 3427 85 136 52 1578.4518036256 2114.7030466804 93807.930018232 170625208.68124
142	364087 1401 87 3427 86 136 51 4.0343364698305 13.999620908881 655.63693528609 8700.5985858861
143	365488 1474 88 3427 87 136 50 -3.6888268362507 2.0824805266107 9.8709737297562 49.168098011079
144	366962 1342 88 3427 87 136 50 0.973 8.0447510818254 137.22194256805 537.0957524016
145	368304 1342 89 3427 88 136 49 2334.5638607559 2450.5693259261 118418.1851341 286243671.97773
146	369646 1349 89 3427 88 136 49 1578.4481442608 2080.0049979147 87558.422572113 157584884.39902
147	370995 1317 90 3427 89 136 48 4.0013211675714 13.999199340187 617.16001942823 8206.4352989694
148	372312 1388 91 3427 90 136 47 -4.4090028646632 2.1844902744796 9.9942419639925 52.893962835476
149	373700 1266 91 3427 90 136 47 0.973 8.6397759745869 131.61829592312 543.85316787276
150	374966 1270 92 3427 91 136 46 2334.3695889099 2450.5909072174 111101.93160957 268401015.55137
151	376236 1267 92 3427 91 136 46 1578.4565926548 2038.608640396 81378.747045852 144842892.07704
152	377503 1243 93 3427 92 136 45 4.0929231651139 13.994371101668 574.54180635982 7597.2865750255
153	378746 1303 94 3427 93 136 44 -4.4791784844679 2.1234678969695 9.8792162784014 54.300006113672
154	380049 1182 94 3427 93 136 44 0.973 9.1179268217973 126.03950340031 538.08471265034
155	381231 1189 95 3427 94 136 43 2334.3552150509 2450.6484816062 103774.46411683 250503732.49823
156	382420 1188 95 3427 94 136 43 1578.4661713783 1998.0707186582 75328.571203203 132632852.55885
157	383608 1161 96 3427 95 136 42 4.2052558286512 13.998518423606 533.62113866003 7035.8904809675
158	384769 1219 97 3427 96 136 41 -4.4488477394171 2.1511947196047 9.7419732599822 54.073842972715
159	385988 1102 97 3427 96 136 41 0.973 8.7639896884138 119.95911724036 522.94248968696
160	387090 1112 98 3427 97 136 40 2334.6953258149 2450.3917266983 96230.802717183 231566641.24103
161	388202 1113 98 3427 97 136 40 1578.4490826223 1924.7507130792 68714.734319448 118440434.51392
162	389315 1086 99 3427 98 136 39 3.9195603011693 13.979853065507 460.6473328677 5656.5692473176
163	390401 1136 100 3427 99 136 38 -2.8955604249949 2.1175358718634 10.01750430999 36.547415908639
164	391537 1041 100 3427 99 136 38 0.973 8.4839578196736 103.42943128187 420.52581877684
165	392578 1036 101 3427 100 136 37 2334.7776501694 2448.2455639384 88997.0558181 214116392.58008
166	393614 1037 101 3427 100 136 37 1578.4549668636 1895.2367429947 63231.399747809 108361856.1946
167	394651 1005 102 3427 101 136 36 3.9747482432421 13.991149456091 431.3324060969 5412.1397409477
168	395656 1041 103 3427 102 136 35 -1.8599681704293 2.0400745077524 9.9852641898701 36.976924648642
169	396697 911 103 3427 102 136 35 0.973 8.7362375013429 99.660195140809 452.01223098902
170	397608 948 104 3427 103 136 34 2334.0319650015 2445.9722220782 81714.948947627 196436025.03554
171	398556 947 104 3427 103 136 34 1578.4700050903 1863.9738094918 57750.685542099 98315614.660983
172	399503 925 105 3427 104 136 33 4.2292426157767 13.998561192479 399.86096566108 5085.8608873559
173	400428 951 106 3427 105 136 32 -2.3199954668997 2.2262654979038 9.7034408119855 44.844621995071
174	401379 846 106 3427 105 136 32 0.973 7.6878605237884 99.334250914353 469.80693898298
175	402225 868 107 3427 106 136 31 2334.7695703001 2443.2059755564 74390.918788868 178555006.84489
176	403093 863 107 3427 106 136 31 1578.454787395 1825.9324649042 52197.595635108 88045802.961833
177	403956 841 108 3427 107 136 30 3.828069966125 13.995784487957 361.22349521107 4590.1591106106
178	404797 862 109 3427 108 136 29 -3.3327581210373 2.0073283973546 10.146319307211 45.232655114336
179	405659 770 109 3427 108 136 29 0.973 7.917155437987 94.174330875026 438.4225686144
180	406429 783 110 3427 109 136 28 2334.6344563016 2440.4705290807 67070.739690242 160693108.12795
181	407212 784 110 3427 109 136 28 1578.4516972676 1788.3146816874 46794.435692303 78308671.04507
182	407996 755 111 3427 110 136 27 3.9549282409494 13.999050881448 324.05318693047 4110.3361546604
183	408751 765 112 3427 111 136 26 -4.4691865845785 2.1450316884601 9.9225283638191 52.344511734501
184	409516 706 112 3427 111 136 26 0.973 8.977512736819 88.704416765407 443.10742940372
185	410222 700 113 3427 112 136 25 2333.9493048734 2433.8728752533 59632.653623265 142266902.31026
186	410922 701 113 3427 112 136 25 1578.451437911 1725.3081579171 41357.380164687 68474977.987428
187	411623 673 114 3427 113 136 24 4.0468560271259 12.718276252743 259.44766221072 2934.0076574817
188	412296 671 115 3427 114 136 23 -3.08 2.0959686288238 8.6714202256176 43.426060857616
189	412967 626 115 3427 114 136 23 0.973 8.1136061922364 73.306131069465 346.6109547186
190	413593 617 116 3427 115 136 22 2334.9436089419 2429.0815697178 52392.534959838 124790131.26184
191	414210 616 116 3427 115 136 22 1578.4623623062 1701.808688445 36258.131190775 59803592.348056
192	414826 590 117 3427 116 136 21 4.2921992871535 13.111258231547 233.09679030898 2739.386390041
193	415416 595 118 3427 117 136 20 -3.4962148275985 2.0968393029622 4.1592182598808 39.57247893906
194	416011 541 118 3427 117 136 20 0.973 7.1817747034554 59.078296526165 240.55066939797
195	416552 534 119 3427 118 136 19 2334.6668089847 2414.8421889067 45068.779262574 106917568.62973
196	417086 531 119 3427 118 136 19 1578.463362135 1697.3057919107 31080.656387744 50876021.674707
197	417617 503 120 3427 119 136 18 4.099163855175 11.655971777454 190.07527490878 2094.8013525283
198	418120 511 121 3427 120 136 17 -0.082262918527704 1.9685779412254 7.5226971102206 14.325121776354
199	418631 476 121 3427 120 136 17 1.5812182319336 7.1275942011634 45.991650208732 175.10769287402
200	419107 448 123 3427 121 136 16 2333.9824690933 2414.8587667713 37953.117177029 90039525.140432
201	419555 447 123 3427 121 136 16 1578.45727483 1690.9780174997 26017.312224229 42328882.908438
202	420002 420 124 3427 122 136 15 3.9084870939956 12.308748868535 161.6704136128 1847.2234642897
203	420422 416 125 3427 123 136 14 -0.066841866918839 1.998923895529 8.3363678605538 15.550723351661
204	420838 394 125 3427 123 136 14 1.6728266331179 7.4633298515258 43.252751272391 181.5807941116
205	421232 366 126 3427 124 136 13 2334.5169715756 2414.8563562874 30893.769890969 73427694.307135
206	421598 365 126 3427 124 136 13 1578.4581599468 1673.7439805111 21000.944498017 33938959.181066
207	421963 337 127 3427 125 136 12 4.076561782019 13.976141884367 136.1457543377 1685.4512275064
208	422300 324 128 3427 126 136 11 -0.058878009577748 1.9700334373023 9.8995801023477 17.994931676476
209	422624 309 128 3427 126 136 11 1.8307333206411 8.2851992498627 44.296550773353 230.6821777643
210	422933 281 129 3427 127 136 10 2352.7425568126 2414.8836791968 23884.126382477 57049413.700027
211	423214 282 129 3427 127 136 10 1578.4481271179 1636.6727752481 16013.004439359 25645641.552611
212	423496 254 130 3427 128 136 9 3.9824005470828 12.585008563524 90.317449095382 992.10738915921
213	423750 236 131 3427 129 136 8 -0.043764734116849 2.145434306066 8.5234946102232 16.409649322339
214	423986 226 131 3427 129 136 8 1.7620638389122 7.2562844975478 33.009433105676 171.05880328557
215	424212 196 132 3427 130 136 7 2381.0820835447 2414.8720430041 16805.104504977 40345406.944679
216	424408 198 132 3427 130 136 7 1578.4523998667 1607.9687388744 11124.064812333 17678577.595368
217	424606 170 133 3427 131 136 6 3.8414571175372 12.846164658443 50.217928279712 478.80132558246
218	424776 142 134 3427 132 136 5 1.6081869424355 1.9174910463369 9.0047075409057 16.289026512752
219	424918 141 134 3427 132 136 5 3.6929808668935 6.9764723776048 28.312471619833 168.23844332394
220	425059 114 316 3427 133 136 4 2402.3161576297 2414.8835599658 9636.5716575091 23215969.330619
221	425173 114 316 3427 133 136 4 1578.4481708985 1586.4615471466 6325.7674739137 10003871.466006
222	425287 86 317 3427 134 136 3 4.0076643208797 8.0938856706662 18.058056700556 117.05233073315
223	425373 58 3426 3427 135 136 2 1.9488423881307 2.1373789616558 4.0862213497865 8.3663754795038
224	425431 57 3426 3427 135 136 2 4.2144634856684 5.718659805645 9.9331232913134 50.464772444732
225	425488 29 3427 3427 136 136 1 2414.8606275192 2414.8606275192 2414.8606275192 5831551.8503424
226	425517 29 3427 3427 136 136 1 1578.4565915735 1578.4565915735 1578.4565915735 2491525.211482

