version 2
run General-0-20240703-17:52:50-3353
attr configname General
attr datetime 20240703-17:52:50
attr experiment General
attr inifile omnetpp.ini
attr iterationvars ""
attr iterationvarsf ""
attr measurement ""
attr network ddossimo.simulations.RSUmessage.RSUExampleScenario
attr processid 3353
attr repetition 0
attr replication #0
attr resultdir results
attr runnumber 0
attr seedset 0
param *.car[*].numAttackPackets 1000
param *.car[*].attackInterval 0.1s
param **.car[*].pdrSignal.statistics true
param **.car[*].delaySignal.statistics true
param **.car[*].throughputSignal.statistics true
param **.car[*].collisionRateSignal.statistics true
param *.playgroundSizeX 2500m
param *.playgroundSizeY 2500m
param *.playgroundSizeZ 50m
param *.annotations.draw true
param *.obstacles.obstacles "xmldoc(\"config.xml\", \"//AnalogueModel[@type='SimpleObstacleShadowing']/obstacles\")"
param *.manager.updateInterval 1s
param *.manager.host "\"localhost\""
param *.manager.port 9999
param *.manager.autoShutdown true
param *.manager.launchConfig "xmldoc(\"erlangen.launchd.xml\")"
param *.rsu[0].mobility.x 2000
param *.rsu[0].mobility.y 2000
param *.rsu[0].mobility.z 3
param *.rsu[*].applType "\"TraCIDemoRSU11p\""
param *.rsu[*].appl.headerLength "80 bit"
param *.rsu[*].appl.sendBeacons false
param *.rsu[*].appl.dataOnSch false
param *.rsu[*].appl.beaconInterval 1s
param *.rsu[*].appl.beaconUserPriority 7
param *.rsu[*].appl.dataUserPriority 5
param *.rsu[*].nic.phy80211p.antennaOffsetZ "0 m"
param *.connectionManager.sendDirect true
param *.connectionManager.maxInterfDist 2600m
param *.connectionManager.drawMaxIntfDist false
param *.**.nic.mac1609_4.useServiceChannel false
param *.**.nic.mac1609_4.txPower 20mW
param *.**.nic.mac1609_4.bitrate 6Mbps
param *.**.nic.phy80211p.minPowerLevel -110dBm
param *.**.nic.phy80211p.useNoiseFloor true
param *.**.nic.phy80211p.noiseFloor -98dBm
param *.**.nic.phy80211p.decider "xmldoc(\"config.xml\")"
param *.**.nic.phy80211p.analogueModels "xmldoc(\"config.xml\")"
param *.**.nic.phy80211p.usePropagationDelay true
param *.**.nic.phy80211p.antenna "xmldoc(\"antenna.xml\", \"/root/Antenna[@id='monopole']\")"
param *.node[*].nic.phy80211p.antennaOffsetY "0 m"
param *.node[*].nic.phy80211p.antennaOffsetZ "1.895 m"
param *.node[*].applType "\"TraCIDemo11p\""
param *.node[*].appl.headerLength "80 bit"
param *.node[*].appl.sendBeacons false
param *.node[*].appl.dataOnSch false
param *.node[*].appl.beaconInterval 1s
param *.node[*].veinsmobility.x 0
param *.node[*].veinsmobility.y 0
param *.node[*].veinsmobility.z 0
param *.node[*].veinsmobility.setHostSpeed false
param *.node[*0].veinsmobility.accidentCount 1
param *.node[*0].veinsmobility.accidentStart 120s
param *.node[*0].veinsmobility.accidentDuration 50s
param *.numCars 20

vector 0 RSUExampleScenario.node[0].veinsmobility posx ETV
vector 1 RSUExampleScenario.node[0].veinsmobility posy ETV
vector 2 RSUExampleScenario.node[0].veinsmobility speed ETV
vector 3 RSUExampleScenario.node[0].veinsmobility acceleration ETV
vector 4 RSUExampleScenario.node[0].veinsmobility co2emission ETV
vector 5 RSUExampleScenario.node[1].veinsmobility posx ETV
vector 6 RSUExampleScenario.node[1].veinsmobility posy ETV
vector 7 RSUExampleScenario.node[1].veinsmobility speed ETV
vector 8 RSUExampleScenario.node[1].veinsmobility acceleration ETV
vector 9 RSUExampleScenario.node[1].veinsmobility co2emission ETV
vector 10 RSUExampleScenario.node[2].veinsmobility posx ETV
vector 11 RSUExampleScenario.node[2].veinsmobility posy ETV
vector 12 RSUExampleScenario.node[2].veinsmobility speed ETV
vector 13 RSUExampleScenario.node[2].veinsmobility acceleration ETV
vector 14 RSUExampleScenario.node[2].veinsmobility co2emission ETV
vector 15 RSUExampleScenario.node[3].veinsmobility posx ETV
vector 16 RSUExampleScenario.node[3].veinsmobility posy ETV
vector 17 RSUExampleScenario.node[3].veinsmobility speed ETV
vector 18 RSUExampleScenario.node[3].veinsmobility acceleration ETV
vector 19 RSUExampleScenario.node[3].veinsmobility co2emission ETV
vector 20 RSUExampleScenario.node[4].veinsmobility posx ETV
vector 21 RSUExampleScenario.node[4].veinsmobility posy ETV
vector 22 RSUExampleScenario.node[4].veinsmobility speed ETV
vector 23 RSUExampleScenario.node[4].veinsmobility acceleration ETV
vector 24 RSUExampleScenario.node[4].veinsmobility co2emission ETV
vector 25 RSUExampleScenario.node[5].veinsmobility posx ETV
vector 26 RSUExampleScenario.node[5].veinsmobility posy ETV
vector 27 RSUExampleScenario.node[5].veinsmobility speed ETV
vector 28 RSUExampleScenario.node[5].veinsmobility acceleration ETV
vector 29 RSUExampleScenario.node[5].veinsmobility co2emission ETV
vector 30 RSUExampleScenario.node[6].veinsmobility posx ETV
vector 31 RSUExampleScenario.node[6].veinsmobility posy ETV
vector 32 RSUExampleScenario.node[6].veinsmobility speed ETV
vector 33 RSUExampleScenario.node[6].veinsmobility acceleration ETV
vector 34 RSUExampleScenario.node[6].veinsmobility co2emission ETV
vector 35 RSUExampleScenario.node[7].veinsmobility posx ETV
vector 36 RSUExampleScenario.node[7].veinsmobility posy ETV
vector 37 RSUExampleScenario.node[7].veinsmobility speed ETV
vector 38 RSUExampleScenario.node[7].veinsmobility acceleration ETV
vector 39 RSUExampleScenario.node[7].veinsmobility co2emission ETV
vector 40 RSUExampleScenario.node[8].veinsmobility posx ETV
vector 41 RSUExampleScenario.node[8].veinsmobility posy ETV
vector 42 RSUExampleScenario.node[8].veinsmobility speed ETV
vector 43 RSUExampleScenario.node[8].veinsmobility acceleration ETV
vector 44 RSUExampleScenario.node[8].veinsmobility co2emission ETV
vector 45 RSUExampleScenario.node[9].veinsmobility posx ETV
vector 46 RSUExampleScenario.node[9].veinsmobility posy ETV
vector 47 RSUExampleScenario.node[9].veinsmobility speed ETV
vector 48 RSUExampleScenario.node[9].veinsmobility acceleration ETV
vector 49 RSUExampleScenario.node[9].veinsmobility co2emission ETV
vector 50 RSUExampleScenario.node[10].veinsmobility posx ETV
vector 51 RSUExampleScenario.node[10].veinsmobility posy ETV
vector 52 RSUExampleScenario.node[10].veinsmobility speed ETV
vector 53 RSUExampleScenario.node[10].veinsmobility acceleration ETV
vector 54 RSUExampleScenario.node[10].veinsmobility co2emission ETV
vector 55 RSUExampleScenario.node[11].veinsmobility posx ETV
vector 56 RSUExampleScenario.node[11].veinsmobility posy ETV
vector 57 RSUExampleScenario.node[11].veinsmobility speed ETV
vector 58 RSUExampleScenario.node[11].veinsmobility acceleration ETV
vector 59 RSUExampleScenario.node[11].veinsmobility co2emission ETV
vector 60 RSUExampleScenario.node[12].veinsmobility posx ETV
vector 61 RSUExampleScenario.node[12].veinsmobility posy ETV
vector 62 RSUExampleScenario.node[12].veinsmobility speed ETV
vector 63 RSUExampleScenario.node[12].veinsmobility acceleration ETV
vector 64 RSUExampleScenario.node[12].veinsmobility co2emission ETV
vector 65 RSUExampleScenario.node[13].veinsmobility posx ETV
vector 66 RSUExampleScenario.node[13].veinsmobility posy ETV
vector 67 RSUExampleScenario.node[13].veinsmobility speed ETV
vector 68 RSUExampleScenario.node[13].veinsmobility acceleration ETV
vector 69 RSUExampleScenario.node[13].veinsmobility co2emission ETV
vector 70 RSUExampleScenario.node[14].veinsmobility posx ETV
vector 71 RSUExampleScenario.node[14].veinsmobility posy ETV
vector 72 RSUExampleScenario.node[14].veinsmobility speed ETV
vector 73 RSUExampleScenario.node[14].veinsmobility acceleration ETV
vector 74 RSUExampleScenario.node[14].veinsmobility co2emission ETV
vector 75 RSUExampleScenario.node[15].veinsmobility posx ETV
vector 76 RSUExampleScenario.node[15].veinsmobility posy ETV
vector 77 RSUExampleScenario.node[15].veinsmobility speed ETV
vector 78 RSUExampleScenario.node[15].veinsmobility acceleration ETV
vector 79 RSUExampleScenario.node[15].veinsmobility co2emission ETV
vector 80 RSUExampleScenario.node[16].veinsmobility posx ETV
vector 81 RSUExampleScenario.node[16].veinsmobility posy ETV
vector 82 RSUExampleScenario.node[16].veinsmobility speed ETV
vector 83 RSUExampleScenario.node[16].veinsmobility acceleration ETV
vector 84 RSUExampleScenario.node[16].veinsmobility co2emission ETV
vector 85 RSUExampleScenario.node[17].veinsmobility posx ETV
vector 86 RSUExampleScenario.node[17].veinsmobility posy ETV
vector 87 RSUExampleScenario.node[17].veinsmobility speed ETV
vector 88 RSUExampleScenario.node[17].veinsmobility acceleration ETV
vector 89 RSUExampleScenario.node[17].veinsmobility co2emission ETV
vector 90 RSUExampleScenario.node[18].veinsmobility posx ETV
vector 91 RSUExampleScenario.node[18].veinsmobility posy ETV
vector 92 RSUExampleScenario.node[18].veinsmobility speed ETV
vector 93 RSUExampleScenario.node[18].veinsmobility acceleration ETV
vector 94 RSUExampleScenario.node[18].veinsmobility co2emission ETV
vector 95 RSUExampleScenario.node[19].veinsmobility posx ETV
vector 96 RSUExampleScenario.node[19].veinsmobility posy ETV
vector 97 RSUExampleScenario.node[19].veinsmobility speed ETV
vector 98 RSUExampleScenario.node[19].veinsmobility acceleration ETV
vector 99 RSUExampleScenario.node[19].veinsmobility co2emission ETV
vector 100 RSUExampleScenario.node[20].veinsmobility posx ETV
vector 101 RSUExampleScenario.node[20].veinsmobility posy ETV
vector 102 RSUExampleScenario.node[20].veinsmobility speed ETV
vector 103 RSUExampleScenario.node[20].veinsmobility acceleration ETV
vector 104 RSUExampleScenario.node[20].veinsmobility co2emission ETV
vector 105 RSUExampleScenario.node[21].veinsmobility posx ETV
vector 106 RSUExampleScenario.node[21].veinsmobility posy ETV
vector 107 RSUExampleScenario.node[21].veinsmobility speed ETV
vector 108 RSUExampleScenario.node[21].veinsmobility acceleration ETV
vector 109 RSUExampleScenario.node[21].veinsmobility co2emission ETV
vector 110 RSUExampleScenario.node[22].veinsmobility posx ETV
vector 111 RSUExampleScenario.node[22].veinsmobility posy ETV
vector 112 RSUExampleScenario.node[22].veinsmobility speed ETV
vector 113 RSUExampleScenario.node[22].veinsmobility acceleration ETV
vector 114 RSUExampleScenario.node[22].veinsmobility co2emission ETV
vector 115 RSUExampleScenario.node[23].veinsmobility posx ETV
vector 116 RSUExampleScenario.node[23].veinsmobility posy ETV
vector 117 RSUExampleScenario.node[23].veinsmobility speed ETV
vector 118 RSUExampleScenario.node[23].veinsmobility acceleration ETV
vector 119 RSUExampleScenario.node[23].veinsmobility co2emission ETV
vector 120 RSUExampleScenario.node[24].veinsmobility posx ETV
vector 121 RSUExampleScenario.node[24].veinsmobility posy ETV
vector 122 RSUExampleScenario.node[24].veinsmobility speed ETV
vector 123 RSUExampleScenario.node[24].veinsmobility acceleration ETV
vector 124 RSUExampleScenario.node[24].veinsmobility co2emission ETV
vector 125 RSUExampleScenario.node[25].veinsmobility posx ETV
vector 126 RSUExampleScenario.node[25].veinsmobility posy ETV
vector 127 RSUExampleScenario.node[25].veinsmobility speed ETV
vector 128 RSUExampleScenario.node[25].veinsmobility acceleration ETV
vector 129 RSUExampleScenario.node[25].veinsmobility co2emission ETV
vector 130 RSUExampleScenario.node[26].veinsmobility posx ETV
vector 131 RSUExampleScenario.node[26].veinsmobility posy ETV
vector 132 RSUExampleScenario.node[26].veinsmobility speed ETV
vector 133 RSUExampleScenario.node[26].veinsmobility acceleration ETV
vector 134 RSUExampleScenario.node[26].veinsmobility co2emission ETV
vector 135 RSUExampleScenario.node[27].veinsmobility posx ETV
vector 136 RSUExampleScenario.node[27].veinsmobility posy ETV
vector 137 RSUExampleScenario.node[27].veinsmobility speed ETV
vector 138 RSUExampleScenario.node[27].veinsmobility acceleration ETV
vector 139 RSUExampleScenario.node[27].veinsmobility co2emission ETV
vector 140 RSUExampleScenario.node[28].veinsmobility posx ETV
vector 141 RSUExampleScenario.node[28].veinsmobility posy ETV
vector 142 RSUExampleScenario.node[28].veinsmobility speed ETV
vector 143 RSUExampleScenario.node[28].veinsmobility acceleration ETV
vector 144 RSUExampleScenario.node[28].veinsmobility co2emission ETV
vector 145 RSUExampleScenario.node[29].veinsmobility posx ETV
vector 146 RSUExampleScenario.node[29].veinsmobility posy ETV
vector 147 RSUExampleScenario.node[29].veinsmobility speed ETV
vector 148 RSUExampleScenario.node[29].veinsmobility acceleration ETV
vector 149 RSUExampleScenario.node[29].veinsmobility co2emission ETV
vector 150 RSUExampleScenario.node[30].veinsmobility posx ETV
vector 151 RSUExampleScenario.node[30].veinsmobility posy ETV
vector 152 RSUExampleScenario.node[30].veinsmobility speed ETV
vector 153 RSUExampleScenario.node[30].veinsmobility acceleration ETV
vector 154 RSUExampleScenario.node[30].veinsmobility co2emission ETV
vector 155 RSUExampleScenario.node[31].veinsmobility posx ETV
vector 156 RSUExampleScenario.node[31].veinsmobility posy ETV
vector 157 RSUExampleScenario.node[31].veinsmobility speed ETV
vector 158 RSUExampleScenario.node[31].veinsmobility acceleration ETV
vector 159 RSUExampleScenario.node[31].veinsmobility co2emission ETV
vector 160 RSUExampleScenario.node[32].veinsmobility posx ETV
vector 161 RSUExampleScenario.node[32].veinsmobility posy ETV
vector 162 RSUExampleScenario.node[32].veinsmobility speed ETV
vector 163 RSUExampleScenario.node[32].veinsmobility acceleration ETV
vector 164 RSUExampleScenario.node[32].veinsmobility co2emission ETV
vector 165 RSUExampleScenario.node[33].veinsmobility posx ETV
vector 166 RSUExampleScenario.node[33].veinsmobility posy ETV
vector 167 RSUExampleScenario.node[33].veinsmobility speed ETV
vector 168 RSUExampleScenario.node[33].veinsmobility acceleration ETV
vector 169 RSUExampleScenario.node[33].veinsmobility co2emission ETV
vector 170 RSUExampleScenario.node[34].veinsmobility posx ETV
vector 171 RSUExampleScenario.node[34].veinsmobility posy ETV
vector 172 RSUExampleScenario.node[34].veinsmobility speed ETV
vector 173 RSUExampleScenario.node[34].veinsmobility acceleration ETV
vector 174 RSUExampleScenario.node[34].veinsmobility co2emission ETV
vector 175 RSUExampleScenario.node[35].veinsmobility posx ETV
vector 176 RSUExampleScenario.node[35].veinsmobility posy ETV
vector 177 RSUExampleScenario.node[35].veinsmobility speed ETV
vector 178 RSUExampleScenario.node[35].veinsmobility acceleration ETV
vector 179 RSUExampleScenario.node[35].veinsmobility co2emission ETV
vector 180 RSUExampleScenario.node[36].veinsmobility posx ETV
vector 181 RSUExampleScenario.node[36].veinsmobility posy ETV
vector 182 RSUExampleScenario.node[36].veinsmobility speed ETV
vector 183 RSUExampleScenario.node[36].veinsmobility acceleration ETV
vector 184 RSUExampleScenario.node[36].veinsmobility co2emission ETV
vector 185 RSUExampleScenario.node[37].veinsmobility posx ETV
vector 186 RSUExampleScenario.node[37].veinsmobility posy ETV
vector 187 RSUExampleScenario.node[37].veinsmobility speed ETV
vector 188 RSUExampleScenario.node[37].veinsmobility acceleration ETV
vector 189 RSUExampleScenario.node[37].veinsmobility co2emission ETV
vector 190 RSUExampleScenario.node[38].veinsmobility posx ETV
vector 191 RSUExampleScenario.node[38].veinsmobility posy ETV
vector 192 RSUExampleScenario.node[38].veinsmobility speed ETV
vector 193 RSUExampleScenario.node[38].veinsmobility acceleration ETV
vector 194 RSUExampleScenario.node[38].veinsmobility co2emission ETV
vector 195 RSUExampleScenario.node[39].veinsmobility posx ETV
vector 196 RSUExampleScenario.node[39].veinsmobility posy ETV
vector 197 RSUExampleScenario.node[39].veinsmobility speed ETV
vector 198 RSUExampleScenario.node[39].veinsmobility acceleration ETV
vector 199 RSUExampleScenario.node[39].veinsmobility co2emission ETV
vector 200 RSUExampleScenario.node[40].veinsmobility posx ETV
vector 201 RSUExampleScenario.node[40].veinsmobility posy ETV
vector 202 RSUExampleScenario.node[40].veinsmobility speed ETV
vector 203 RSUExampleScenario.node[40].veinsmobility acceleration ETV
vector 204 RSUExampleScenario.node[40].veinsmobility co2emission ETV
vector 205 RSUExampleScenario.node[41].veinsmobility posx ETV
vector 206 RSUExampleScenario.node[41].veinsmobility posy ETV
vector 207 RSUExampleScenario.node[41].veinsmobility speed ETV
vector 208 RSUExampleScenario.node[41].veinsmobility acceleration ETV
vector 209 RSUExampleScenario.node[41].veinsmobility co2emission ETV
vector 210 RSUExampleScenario.node[42].veinsmobility posx ETV
vector 211 RSUExampleScenario.node[42].veinsmobility posy ETV
vector 212 RSUExampleScenario.node[42].veinsmobility speed ETV
vector 213 RSUExampleScenario.node[42].veinsmobility acceleration ETV
vector 214 RSUExampleScenario.node[42].veinsmobility co2emission ETV
vector 215 RSUExampleScenario.node[43].veinsmobility posx ETV
vector 216 RSUExampleScenario.node[43].veinsmobility posy ETV
vector 217 RSUExampleScenario.node[43].veinsmobility speed ETV
vector 218 RSUExampleScenario.node[43].veinsmobility acceleration ETV
vector 219 RSUExampleScenario.node[43].veinsmobility co2emission ETV
vector 220 RSUExampleScenario.node[44].veinsmobility posx ETV
vector 221 RSUExampleScenario.node[44].veinsmobility posy ETV
vector 222 RSUExampleScenario.node[44].veinsmobility speed ETV
vector 223 RSUExampleScenario.node[44].veinsmobility acceleration ETV
vector 224 RSUExampleScenario.node[44].veinsmobility co2emission ETV
vector 225 RSUExampleScenario.node[45].veinsmobility posx ETV
vector 226 RSUExampleScenario.node[45].veinsmobility posy ETV
0	2	1	2414.8476884116
0	3	2	2411.8243290941
0	4	3	2407.1592244543
0	5	4	2402.288200066
0	6	5	2396.1394374635
0	7	6	2388.6993875942
0	8	7	2379.889221533
0	9	8	2370.1207192459
0	10	9	2360.3141803208
0	11	10	2350.5099475634
0	12	11	2341.0010868867
0	13	12	2334.5620136983
0	14	13	2337.6803779466
0	15	14	2348.3497968862
0	16	15	2358.6961674725
0	17	16	2371.6616533546
0	18	17	2385.4706804305
0	19	18	2399.3588350668
0	20	19	2412.4541998667
0	21	20	2421.4418196582
0	22	21	2428.417609864
0	23	22	2431.468930052
0	24	23	2433.1513403206
0	25	24	2435.1237040944
0	26	25	2437.2173147583
0	27	26	2438.6437980286
0	28	27	2439.5074353185
0	29	28	2440.517813261
0	30	29	2441.5286354903
0	31	30	2442.5392864447
0	32	31	2443.5505626462
0	33	32	2444.5611125134
0	34	33	2445.5724211388
0	35	34	2446.5834693939
0	36	35	2447.5934051003
0	37	36	2448.6036931522
0	38	37	2449.6148620235
0	39	38	2450.6248001783
0	40	39	2449.5880553933
0	41	40	2448.4757357414
0	42	41	2447.3635385588
0	43	42	2446.250303259
0	44	43	2445.1365203297
0	45	44	2444.0235521834
0	46	45	2442.9111769209
0	47	46	2441.7982721732
0	48	47	2440.6856421625
0	49	48	2439.7151308154
0	50	49	2438.7725309408
0	51	50	2437.9056889905
0	52	51	2432.8785054281
0	53	52	2422.5273191113
0	54	53	2409.439604845
0	55	54	2395.517893619
0	56	55	2381.592286239
0	57	56	2367.6659531716
0	58	57	2353.7601239877
0	59	58	2339.8337569573
0	60	59	2325.9069679289
0	61	60	2311.9542202253
0	62	61	2298.0325140053
0	63	62	2284.0857072632
0	64	63	2270.1754193477
0	65	64	2256.2378749268
0	66	65	2242.3725172955
0	67	66	2228.5568932705
0	68	67	2214.8035730832
0	69	68	2201.6130456962
0	70	69	2188.4247624045
0	71	70	2175.5107078577
0	72	71	2163.5018647154
0	73	72	2152.2359160049
0	74	73	2144.5614629743
0	75	74	2138.2558950796
0	76	75	2131.5955681979
0	77	76	2123.7056670481
0	78	77	2114.4870687368
0	79	78	2104.967243704
0	80	79	2095.4384303803
0	81	80	2085.9056783495
0	82	81	2076.3779145891
0	83	82	2066.8424239405
0	84	83	2057.3019868316
0	85	84	2047.7591241145
0	86	85	2037.7608240946
0	87	86	2027.7716043318
0	88	87	2017.7788433422
0	89	88	2007.7911366803
0	90	89	1997.8010467655
0	91	90	1987.8117551972
0	92	91	1977.8105066026
0	93	92	1967.8078011014
0	94	93	1957.8261436883
0	95	94	1947.8354978411
0	96	95	1937.8357170075
0	97	96	1928.0943876163
0	98	97	1918.3458898404
0	99	98	1908.595691517
0	100	99	1898.860628812
0	101	100	1889.1253430418
0	102	101	1879.3899734151
0	103	102	1869.6541828585
0	104	103	1859.9138401168
0	105	104	1850.1927032812
0	106	105	1840.4627611398
0	107	106	1830.4943832025
0	108	107	1820.3899234756
0	109	108	1810.2821070175
0	110	109	1800.3072354572
0	111	110	1790.3538284535
0	112	111	1780.4116429748
0	113	112	1770.4645217122
0	114	113	1760.5038479915
0	115	114	1750.5548786415
0	116	115	1740.6057387365
0	117	116	1730.6509342341
0	118	117	1720.6987788925
0	119	118	1710.7568396883
0	120	119	1700.8018530838
0	121	120	1690.8717264237
0	123	121	1682.7119834772
0	124	122	1677.7664839206
0	125	123	1676.035227754
0	126	124	1676.035227754
0	127	125	1676.035227754
0	128	126	1676.035227754
0	129	127	1676.035227754
0	130	128	1676.035227754
0	131	129	1676.035227754
0	132	130	1676.035227754
0	133	131	1676.035227754
0	134	132	1676.035227754
0	316	133	1676.035227754
0	317	134	1676.035227754
0	3426	135	1676.035227754
0	3427	136	1676.035227754
1	2	1	1578.4613427464
1	3	2	1579.5715045081
1	4	3	1581.5561876604
1	5	4	1586.4898643075
1	6	5	1592.7177137369
1	7	6	1600.2534592729
1	8	7	1609.1769437566
1	9	8	1619.0710908128
1	10	9	1629.0037637418
1	11	10	1638.9341008412
1	12	11	1649.1129276818
1	13	12	1661.0453354148
1	14	13	1673.5713017788
1	15	14	1682.4825292248
1	16	15	1691.8131453674
1	17	16	1695.5671389326
1	18	17	1697.3762977775
1	19	18	1698.7149431584
1	20	19	1699.9531973498
1	21	20	1700.8030368192
1	22	21	1701.4822415169
1	23	22	1709.488976148
1	24	23	1720.5600911779
1	25	24	1733.5392477075
1	26	25	1747.3162704222
1	27	26	1761.1584832035
1	28	27	1775.0702432813
1	29	28	1788.9649324082
1	30	29	1802.8657313576
1	31	30	1816.7641749373
1	32	31	1830.6712168986
1	33	32	1844.5682703312
1	34	33	1858.4757581847
1	35	34	1872.3796654344
1	36	35	1886.2682729438
1	37	36	1900.1617258992
1	38	37	1914.0672918586
1	39	38	1927.95593304
1	40	39	1941.8192613758
1	41	40	1955.7024557721
1	42	41	1969.5841215905
1	43	42	1983.4787444612
1	44	43	1997.3802024601
1	45	44	2011.2714909082
1	46	45	2025.1553793969
1	47	46	2039.0458765477
1	48	47	2052.9329446238
1	49	48	2066.8462265795
1	50	49	2080.7728807703
1	51	50	2094.6498483503
1	52	51	2107.3969092406
1	53	52	2116.410831539
1	54	53	2120.9360540062
1	55	54	2120.5048353085
1	56	55	2120.0344859883
1	57	56	2119.5641121576
1	58	57	2119.0944308629
1	59	58	2118.6240558857
1	60	59	2118.1536666537
1	61	60	2117.6824006466
1	62	61	2117.2121830918
1	63	62	2116.7411177447
1	64	63	2116.2712858524
1	65	64	2115.8005333487
1	66	65	2114.7955725584
1	67	66	2112.8364102887
1	68	67	2110.6440530941
1	69	68	2106.1704403665
1	70	69	2101.6975887315
1	71	70	2096.6391956527
1	72	71	2089.5697793076
1	73	72	2082.9376931852
1	74	73	2078.419863862
1	75	74	2074.2936624894
1	76	75	2067.3736373968
1	77	76	2058.9511591028
1	78	77	2049.1102951029
1	79	78	2038.9478712408
1	80	79	2028.7758523691
1	81	80	2018.5996289225
1	82	81	2008.4287304608
1	83	82	1998.2495835368
1	84	83	1988.0651562605
1	85	84	1977.9077978879
1	86	85	1968.1884612162
1	87	86	1958.4779514531
1	88	87	1948.7639992675
1	89	88	1939.0549603878
1	90	89	1929.3436047509
1	91	90	1919.6330251861
1	92	91	1909.910822208
1	93	92	1900.1872029733
1	94	93	1890.4840445621
1	95	94	1880.7721485039
1	96	95	1871.0513723353
1	97	96	1861.0772373844
1	98	97	1851.0875595547
1	99	98	1841.096139106
1	100	99	1831.1202287339
1	101	100	1821.144089778
1	102	101	1811.1678648908
1	103	102	1801.1912086597
1	104	103	1791.209887621
1	105	104	1781.2482476477
1	106	105	1771.277584523
1	107	106	1761.5227281116
1	108	107	1751.9260671614
1	109	108	1742.3262181729
1	110	109	1732.5843797447
1	111	110	1722.8299162164
1	112	111	1713.086449923
1	113	112	1703.3381465003
1	114	113	1693.5765614985
1	115	114	1683.8264469272
1	116	115	1674.0761652095
1	117	116	1664.3203321155
1	118	117	1654.5670952313
1	119	118	1644.823870291
1	120	119	1635.0678587342
1	121	120	1625.336210235
1	123	121	1617.3395599481
1	124	122	1612.4929084415
1	125	123	1610.7962557143
1	126	124	1610.7962557143
1	127	125	1610.7962557143
1	128	126	1610.7962557143
1	129	127	1610.7962557143
1	130	128	1610.7962557143
1	131	129	1610.7962557143
1	132	130	1610.7962557143
1	133	131	1610.7962557143
1	134	132	1610.7962557143
1	316	133	1610.7962557143
1	317	134	1610.7962557143
1	3426	135	1610.7962557143
1	3427	136	1610.7962557143
2	3	2	4.1061966058897
2	4	3	6.0195495591482
2	5	4	7.7148368984793
2	6	5	9.5879868385225
2	7	6	11.391389363371
2	8	7	13.513839789145
2	9	8	13.99235115225
2	10	9	13.890224446259
2	11	10	13.976677174468
2	12	11	13.994826577434
2	13	12	13.923680325528
2	14	13	13.923542996629
2	15	14	13.91007151508
2	16	15	13.964598868005
2	17	16	13.995233640105
2	18	17	13.952304350403
2	19	18	13.956911946491
2	20	19	11.503494614513
2	21	20	7.0034946145128
2	22	21	7.8970062485022
2	23	22	10.10483181514
2	24	23	11.990706169653
2	25	24	13.981089308816
2	26	25	13.965594365916
2	27	26	13.989059597438
2	28	27	13.956378436291
2	29	28	13.910982951869
2	30	29	13.88918493646
2	31	30	13.908189346099
2	32	31	13.983992603337
2	33	32	13.971500478752
2	34	33	13.873081948087
2	35	34	13.985133641064
2	36	35	13.886848415199
2	37	36	13.876205747321
2	38	37	13.967912819823
2	39	38	13.871047234884
2	40	39	13.89239756926
2	41	40	13.872267716837
2	42	41	13.999815066161
2	43	42	13.964707984752
2	44	43	13.906584702837
2	45	44	13.922364303169
2	46	45	13.929034490574
2	47	46	13.93922677479
2	48	47	13.924399639922
2	49	48	13.96850544848
2	50	49	13.986686690277
2	51	50	13.935194088209
2	52	51	13.930097484484
2	53	52	13.948393711536
2	54	53	13.882971800906
2	55	54	13.87138918183
2	56	55	13.933780807857
2	57	56	13.942265776542
2	58	57	13.95140511482
2	59	58	13.886548467774
2	60	59	13.920721456567
2	61	60	13.906796863726
2	62	61	13.917803910668
2	63	62	13.924582225601
2	64	63	13.959688465288
2	65	64	13.957318032989
2	66	65	13.940553226951
2	67	66	13.998651232829
2	68	67	13.999179182528
2	69	68	13.886099785112
2	70	69	13.881868150404
2	71	70	13.887636745651
2	72	71	13.978686858166
2	73	72	11.380505228889
2	74	73	6.8805052288885
2	75	74	8.4946715655791
2	76	75	10.462119500426
2	77	76	12.535577293956
2	78	77	13.991704303646
2	79	78	13.884412832095
2	80	79	13.939308186586
2	81	80	13.975432322551
2	82	81	13.918436620038
2	83	82	13.942294309565
2	84	83	13.978181636031
2	85	84	13.992612206677
2	86	85	13.973604970614
2	87	86	13.905247902325
2	88	87	13.91578970917
2	89	88	13.942760436635
2	90	89	13.903644982614
2	91	90	13.957507387074
2	92	91	13.990155698378
2	93	92	13.951199041368
2	94	93	13.920407453054
2	95	94	13.913764986643
2	96	95	13.919862737071
2	97	96	13.927667983579
2	98	97	13.987681491903
2	99	98	13.949967818004
2	100	99	13.923793041168
2	101	100	13.956372545112
2	102	101	13.893336640052
2	103	102	13.920919575624
2	104	103	13.944676370309
2	105	104	13.937630747855
2	106	105	13.901362465066
2	107	106	13.954829121996
2	108	107	13.995929163198
2	109	108	13.882499602956
2	110	109	13.910075074201
2	111	110	13.894284862701
2	112	111	13.913974985913
2	113	112	13.871336730926
2	114	113	13.935027445888
2	115	114	13.877062078733
2	116	115	13.981228611642
2	117	116	13.873776447547
2	118	117	13.92000553376
2	119	118	13.94351971182
2	120	119	13.968914518312
2	121	120	13.898790548788
2	123	121	9.3987905487884
2	124	122	4.8987905487884
2	125	123	0.39879054878839
2	126	124	0
2	127	125	0
2	128	126	0
2	129	127	0
2	130	128	0
2	131	129	0
2	132	130	0
2	133	131	0
2	134	132	0
2	316	133	0
2	317	134	0
2	3426	135	0
2	3427	136	0
3	4	3	1.9133529532584
3	5	4	1.6952873393311
3	6	5	1.8731499400432
3	7	6	1.8034025248489
3	8	7	2.1224504257739
3	9	8	0.47851136310433
3	10	9	-0.1021267059911
3	11	10	0.086452728209551
3	12	11	0.018149402965792
3	13	12	-0.071146251906175
3	14	13	-0.0001373288989992
3	15	14	-0.013471481548622
3	16	15	0.054527352924923
3	17	16	0.03063477210002
3	18	17	-0.04292928970186
3	19	18	0.0046075960877356
3	20	19	-2.4534173319781
3	21	20	-4.5
3	22	21	0.8935116339894
3	23	22	2.2078255666373
3	24	23	1.8858743545134
3	25	24	1.9903831391631
3	26	25	-0.01549494290026
3	27	26	0.023465231521987
3	28	27	-0.032681161146611
3	29	28	-0.045395484422334
3	30	29	-0.021798015409148
3	31	30	0.019004409639164
3	32	31	0.075803257238585
3	33	32	-0.012492124584968
3	34	33	-0.098418530665803
3	35	34	0.11205169297755
3	36	35	-0.098285225864965
3	37	36	-0.01064266787842
3	38	37	0.091707072502468
3	39	38	-0.096865584938786
3	40	39	0.021350334375166
3	41	40	-0.020129852422979
3	42	41	0.12754734932445
3	43	42	-0.035107081409079
3	44	43	-0.058123281914741
3	45	44	0.015779600332026
3	46	45	0.0066701874043797
3	47	46	0.010192284216172
3	48	47	-0.014827134867664
3	49	48	0.044105808557942
3	50	49	0.018181241797283
3	51	50	-0.051492602068466
3	52	51	-0.0050966037251055
3	53	52	0.018296227052343
3	54	53	-0.065421910630539
3	55	54	-0.011582619075197
3	56	55	0.062391626026946
3	57	56	0.0084849686850799
3	58	57	0.0091393382777465
3	59	58	-0.064856647045817
3	60	59	0.034172988792415
3	61	60	-0.013924592840485
3	62	61	0.011007046941668
3	63	62	0.0067783149331806
3	64	63	0.035106239686721
3	65	64	-0.0023704322986315
3	66	65	-0.016764806038699
3	67	66	0.058098005878273
3	68	67	0.0005279496987356
3	69	68	-0.11307939741528
3	70	69	-0.0042316347081215
3	71	70	0.0057685952470639
3	72	71	0.091050112515221
3	73	72	-2.598181629278
3	74	73	-4.5
3	75	74	1.6141663366905
3	76	75	1.9674479348469
3	77	76	2.0734577935305
3	78	77	1.4561270096891
3	79	78	-0.10729147155071
3	80	79	0.054895354490727
3	81	80	0.036124135965947
3	82	81	-0.056995702513959
3	83	82	0.023857689527794
3	84	83	0.035887326465454
3	85	84	0.014430570646654
3	86	85	-0.01900723606348
3	87	86	-0.068357068288606
3	88	87	0.010541806844994
3	89	88	0.026970727464649
3	90	89	-0.039115454021376
3	91	90	0.053862404460089
3	92	91	0.032648311303928
3	93	92	-0.038956657010131
3	94	93	-0.030791588313878
3	95	94	-0.0066424664109945
3	96	95	0.0060977504285979
3	97	96	0.0078052465082141
3	98	97	0.060013508324046
3	99	98	-0.037713673899415
3	100	99	-0.026174776835834
3	101	100	0.032579503944145
3	102	101	-0.063035905060826
3	103	102	0.027582935572138
3	104	103	0.023756794685031
3	105	104	-0.0070456224540241
3	106	105	-0.036268282788805
3	107	106	0.053466656929812
3	108	107	0.041100041202736
3	109	108	-0.11342956024222
3	110	109	0.027575471245218
3	111	110	-0.015790211500134
3	112	111	0.019690123212058
3	113	112	-0.042638254987542
3	114	113	0.063690714961849
3	115	114	-0.057965367154683
3	116	115	0.10416653290857
3	117	116	-0.10745216409443
3	118	117	0.046229086213279
3	119	118	0.023514178059996
3	120	119	0.025394806491676
3	121	120	-0.070123969523701
3	123	121	-4.5
3	124	122	-4.5
3	125	123	-4.5
3	126	124	-0.39879054878839
3	127	125	0
3	128	126	0
3	129	127	0
3	130	128	0
3	131	129	0
3	132	130	0
3	133	131	0
3	134	132	0
3	316	133	0
3	317	134	0
3	3426	135	0
3	3427	136	0
4	4	3	4.1962556146115
4	5	4	4.6765885426193
4	6	5	5.9822455727343
4	7	6	6.7469998477461
4	8	7	8.9023657158011
4	9	8	3.651678681686
4	10	9	1.6857621818206
4	11	10	2.3276633668785
4	12	11	2.0995306276608
4	13	12	1.7923040941768
4	14	13	2.0305681317735
4	15	14	1.9844951865828
4	16	15	2.2187318873595
4	17	16	2.1416854339172
4	18	17	1.8896148890835
4	19	18	2.0499339673421
4	20	19	0.973
4	21	20	0.973
4	22	21	3.236958348016
4	23	22	7.0694109561587
4	24	23	7.2974163894139
4	25	24	8.7433911631671
4	26	25	1.9831721788576
4	27	26	2.116835898497
4	28	27	1.9244585801898
4	29	28	1.8775583559564
4	30	29	1.9545657515643
4	31	30	2.0931646705581
4	32	31	2.2926746988581
4	33	32	1.993865292131
4	34	33	1.6968396252803
4	35	34	2.4149847823944
4	36	35	1.6983583398882
4	37	36	1.9906198998388
4	38	37	2.3442713071536
4	39	38	1.7018725964397
4	40	39	2.0993392475273
4	41	40	1.9585122345881
4	42	41	2.4691677522194
4	43	42	1.9170802753567
4	44	43	1.8345014514108
4	45	44	2.0838538984303
4	46	45	2.0539801513469
4	47	46	2.0668686152862
4	48	47	1.9813596940184
4	49	48	2.1840996762636
4	50	49	2.0987681125428
4	51	50	1.8592856847688
4	52	51	2.0145873760113
4	53	52	2.0950692067684
4	54	53	1.8080099866508
4	55	54	1.9870007069688
4	56	55	2.2415869227426
4	57	56	2.0614496349521
4	58	57	2.0646020593826
4	59	58	1.8102089718445
4	60	59	2.1453880261281
4	61	60	1.9826536733129
4	62	61	2.0673636130683
4	63	62	2.0538817544551
4	64	63	2.1528270365066
4	65	64	2.0265038417738
4	66	65	1.9764402783138
4	67	66	2.2347131127692
4	68	67	2.0405446651404
4	69	68	1.6487905152147
4	70	69	2.0126291187762
4	71	70	2.0466796925005
4	72	71	2.3433989621326
4	73	72	0.973
4	74	73	0.973
4	75	74	4.8809554156367
4	76	75	6.6811452761601
4	77	76	8.1607584221603
4	78	77	6.9480584672652
4	79	78	1.6680322027993
4	80	79	2.2170514259717
4	81	80	2.1579993066844
4	82	81	1.8393252185798
4	83	82	2.1131063774542
4	84	83	2.157506963768
4	85	84	2.0867532276998
4	86	85	1.9721338004887
4	87	86	1.8000889448787
4	88	87	2.0655927143501
4	89	88	2.1236171019815
4	90	89	1.8979343131076
4	91	90	2.2156768175481
4	92	91	2.1479163480387
4	93	92	1.9028703189759
4	94	93	1.9274090838955
4	95	94	2.0077586487826
4	96	95	2.0511097794732
4	97	96	2.0576484682309
4	98	97	2.2398922754829
4	99	98	1.9069349143407
4	100	99	1.9432214712872
4	101	100	2.1439613436349
4	102	101	1.8168896615362
4	103	102	2.1233006114287
4	104	103	2.1130242583451
4	105	104	2.0088001748926
4	106	105	1.9072621324086
4	107	106	2.2140373373517
4	108	107	2.1770614278808
4	109	108	1.6473510828978
4	110	109	2.1220983905492
4	111	110	1.9751750017376
4	112	111	2.0960799393481
4	113	112	1.8831767790609
4	114	113	2.2460956727086
4	115	114	1.8324400030243
4	116	115	2.3879104851153
4	117	116	1.6666890233496
4	118	117	2.1857539942143
4	119	118	2.1120842252302
4	120	119	2.1211551333534
4	121	120	1.7936195303491
4	123	121	0.973
4	124	122	0.973
4	125	123	0.973
4	126	124	0.973
4	127	125	0.973
4	128	126	0.973
4	129	127	0.973
4	130	128	0.973
4	131	129	0.973
4	132	130	0.973
4	133	131	0.973
4	134	132	0.973
4	316	133	0.973
4	317	134	0.973
4	3426	135	0.973
4	3427	136	0.973
5	5	4	2414.8767583254
5	6	5	2411.8725636174
5	7	6	2407.2970525089
5	8	7	2402.4626210862
5	9	8	2396.3056860371
5	10	9	2388.8743536096
5	11	10	2380.097228827
5	12	11	2370.3507264333
5	13	12	2360.5878487076
5	14	13	2350.7849318213
5	15	14	2341.2418729237
5	16	15	2334.6305580324
5	17	16	2337.3467480277
5	18	17	2348.0519014368
5	19	18	2358.3998493504
5	20	19	2371.2788021446
5	21	20	2385.0887639745
5	22	21	2398.4985461925
5	23	22	2411.2485283293
5	24	23	2420.6905829484
5	25	24	2427.6440450998
5	26	25	2431.3031180431
5	27	26	2432.9057471878
5	28	27	2434.8184996871
5	29	28	2436.9106889558
5	30	29	2438.5031214217
5	31	30	2439.359314087
5	32	31	2440.3695716034
5	33	32	2441.3815056744
5	34	33	2442.392207776
5	35	34	2443.4019859718
5	36	35	2444.4122552489
5	37	36	2445.4251439738
5	38	37	2446.4367595227
5	39	38	2447.4467230743
5	40	39	2448.4574488286
5	41	40	2449.467800329
5	42	41	2450.4780716181
5	43	42	2449.7461704329
5	44	43	2448.6331060936
5	45	44	2447.5209445587
5	46	45	2446.407523851
5	47	46	2445.2946584851
5	48	47	2444.1824360332
5	49	48	2443.0706190476
5	50	49	2441.9568028547
5	51	50	2440.8451110823
5	52	51	2439.8503503047
5	53	52	2438.9091742415
5	54	53	2438.2310626655
5	55	54	2433.9050446447
5	56	55	2424.21615465
5	57	56	2411.3460908785
5	58	57	2397.4706148925
5	59	58	2383.5587488873
5	60	59	2369.633660475
5	61	60	2355.7048479554
5	62	61	2341.7904321874
5	63	62	2327.8638711022
5	64	63	2313.9188814831
5	65	64	2299.9979078089
5	66	65	2286.0826278217
5	67	66	2272.1551827891
5	68	67	2258.2333055256
5	69	68	2244.3319301521
5	70	69	2230.5388995206
5	71	70	2216.7493601282
5	72	71	2203.5089906314
5	73	72	2190.3028214657
5	74	73	2177.2175397498
5	75	74	2165.2424954871
5	76	75	2153.7742474813
5	77	76	2145.5067126864
5	78	77	2139.5021617314
5	79	78	2133.1382634535
5	80	79	2125.5907683726
5	81	80	2116.6856371113
5	82	81	2107.1659774036
5	83	82	2097.6471887421
5	84	83	2088.1193509075
5	85	84	2078.5897193553
5	86	85	2069.0611372048
5	87	86	2059.5358263678
5	88	87	2050.0131364827
5	89	88	2040.1145859665
5	90	89	2030.1137191838
5	91	90	2020.1430603783
5	92	91	2010.1475011546
5	93	92	2000.1671663148
5	94	93	1990.1688805242
5	95	94	1980.1967867191
5	96	95	1970.2022643924
5	97	96	1960.2251632516
5	98	97	1950.2447792089
5	99	98	1940.2416033717
5	100	99	1930.4505492545
5	101	100	1920.7111281679
5	102	101	1910.9822782709
5	103	102	1901.2447243325
5	104	103	1891.5146576024
5	105	104	1881.7809631245
5	106	105	1872.0450304444
5	107	106	1862.3040305478
5	108	107	1852.5818645544
5	109	108	1842.8447400127
5	110	109	1832.9814100579
5	111	110	1822.8651402954
5	112	111	1812.7663602663
5	113	112	1802.7683831069
5	114	113	1792.8207055556
5	115	114	1782.8564651203
5	116	115	1772.894810806
5	117	116	1762.92641096
5	118	117	1752.9705464942
5	119	118	1743.0163782743
5	120	119	1733.0664695518
5	121	120	1723.1120307929
5	123	121	1713.1667215774
5	124	122	1703.2206722586
5	125	123	1694.731917471
5	126	124	1684.4975059913
5	127	125	1675.1866231293
5	128	126	1665.235300479
5	129	127	1655.2930866103
5	130	128	1645.3339160052
5	131	129	1635.3922031604
5	132	130	1625.466982659
5	133	131	1617.8244975633
5	134	132	1608.0894573816
5	316	133	1598.2708764096
5	317	134	1588.452432344
5	3426	135	1578.6396544373
5	3427	136	1568.8176315482
6	5	4	1578.4506684253
6	6	5	1579.5537930429
6	7	6	1581.4165868293
6	8	7	1586.3131998433
6	9	8	1592.5493268352
6	10	9	1600.0762428036
6	11	10	1608.9662610246
6	12	11	1618.8381252186
6	13	12	1628.7265753681
6	14	13	1638.6555796713
6	15	14	1648.8046840783
6	16	15	1660.6325348346
6	17	16	1673.301875555
6	18	17	1682.2138796467
6	19	18	1691.5459182626
6	20	19	1695.5099147679
6	21	20	1697.3308411958
6	22	21	1698.6335971011
6	23	22	1699.8391930545
6	24	23	1700.7320023719
6	25	24	1701.2941834759
6	26	25	1708.3978488175
6	27	26	1718.9439634858
6	28	27	1731.5308475178
6	29	28	1745.2985167308
6	30	29	1759.1189484736
6	31	30	1773.033284259
6	32	31	1786.9263172904
6	33	32	1800.8424062571
6	34	33	1814.7415532097
6	35	34	1828.6279946407
6	36	35	1842.5211894047
6	37	36	1856.4504067414
6	38	37	1870.362115399
6	39	38	1884.2511058366
6	40	39	1898.150578063
6	41	40	1912.0449035605
6	42	41	1925.9381259941
6	43	42	1939.8457802581
6	44	43	1953.7382693188
6	45	44	1967.6194902081
6	46	45	1981.5164272105
6	47	46	1995.4064328251
6	48	47	2009.2884140396
6	49	48	2023.165334505
6	50	49	2037.0672076773
6	51	50	2050.942565321
6	52	51	2064.8483957723
6	53	52	2078.754013543
6	54	53	2092.6537938379
6	55	54	2105.6893007364
6	56	55	2115.3934075218
6	57	56	2120.5034639826
6	58	57	2120.5707901428
6	59	58	2120.100904949
6	60	59	2119.6305731572
6	61	60	2119.160115581
6	62	61	2118.6901442679
6	63	62	2118.2197627351
6	64	63	2117.748758764
6	65	64	2117.2785659507
6	66	65	2116.8085654471
6	67	66	2116.3381540589
6	68	67	2115.8679307271
6	69	68	2115.0734324455
6	70	69	2113.117474094
6	71	70	2111.1620108271
6	72	71	2106.8134566117
6	73	72	2102.3345389208
6	74	73	2097.6439806372
6	75	74	2090.5944611588
6	76	75	2083.8432846358
6	77	76	2078.976317442
6	78	77	2075.2888157107
6	79	78	2069.0204663062
6	80	79	2060.9635068728
6	81	80	2051.4572692998
6	82	81	2041.2950219223
6	83	82	2031.1337043885
6	84	83	2020.9627268519
6	85	84	2010.7898345208
6	86	85	2000.6180624254
6	87	86	1990.4497824619
6	88	87	1980.2843003673
6	89	88	1970.4765505949
6	90	89	1960.7547187759
6	91	90	1951.0622520996
6	92	91	1941.3455797536
6	93	92	1931.6437070146
6	94	93	1921.9243841758
6	95	94	1912.2305225376
6	96	95	1902.5148581574
6	97	96	1892.8161288938
6	98	97	1883.1142083248
6	99	98	1873.3901318768
6	100	99	1863.491690998
6	101	100	1853.5113144172
6	102	101	1843.5417705588
6	103	102	1833.5633073198
6	104	103	1823.5925165238
6	105	104	1813.618008229
6	106	105	1803.6412063586
6	107	106	1793.6592119075
6	108	107	1783.6965173148
6	109	108	1773.7184940958
6	110	109	1763.8847696399
6	111	110	1754.2768921675
6	112	111	1744.6856254824
6	113	112	1734.9963352662
6	114	113	1725.2474866733
6	115	114	1715.4824062474
6	116	115	1705.7198602511
6	117	116	1695.9507035501
6	118	117	1686.1938316785
6	119	118	1676.4386221487
6	120	119	1666.6875869809
6	121	120	1656.9321123194
6	123	121	1647.1855847258
6	124	122	1637.438331821
6	125	123	1629.1192458095
6	126	124	1623.713512212
6	127	125	1614.5886915503
6	128	126	1604.8362292033
6	129	127	1595.0926936148
6	130	128	1585.3325401405
6	131	129	1575.5894955639
6	132	130	1565.862613759
6	133	131	1553.74901105
6	134	132	1543.9399249414
6	316	133	1534.02852125
6	317	134	1524.1172557594
6	3426	135	1514.2117099948
6	3427	136	1504.2968318472
7	6	5	4.0332649588119
7	7	6	5.8265110515686
7	8	7	7.7852127750962
7	9	8	9.5658873894228
7	10	9	11.450149483434
7	11	10	13.391487500134
7	12	11	13.949883621705
7	13	12	13.87602620427
7	14	13	13.885232782268
7	15	14	13.987373048679
7	16	15	13.890608048609
7	17	16	13.887004709987
7	18	17	13.926980708602
7	19	18	13.89086526999
7	20	19	13.965056618985
7	21	20	13.946692067499
7	22	21	13.097137451398
7	23	22	11.939132677032
7	24	23	7.4783001788439
7	25	24	7.8592269216425
7	26	25	9.5749213322898
7	27	26	11.610942506126
7	28	27	13.581243869506
7	29	28	13.973211987913
7	30	29	13.918392209036
7	31	30	13.928662607018
7	32	31	13.985277111761
7	33	32	13.95532245066
7	34	33	13.938708755139
7	35	34	13.908545650935
7	36	35	13.927478809105
7	37	36	13.897819017794
7	38	37	13.989504252097
7	39	38	13.94374062394
7	40	39	13.903882643976
7	41	40	13.969130632835
7	42	41	13.884234787642
7	43	42	13.881978327318
7	44	43	13.927070145076
7	45	44	13.922745489741
7	46	45	13.95273740395
7	47	46	13.968270483359
7	48	47	13.918685564972
7	49	48	13.921468284922
7	50	49	13.897015957548
7	51	50	13.964752228069
7	52	51	13.91147568828
7	53	52	13.974545761354
7	54	53	13.965476403411
7	55	54	13.989670229855
7	56	55	13.951804798429
7	57	56	13.892850009208
7	58	57	13.958218119799
7	59	58	13.933717581006
7	60	59	13.982012811573
7	61	60	13.954506225567
7	62	61	13.954468280503
7	63	62	13.914126337939
7	64	63	13.998578815588
7	65	64	13.932968401979
7	66	65	13.954534002345
7	67	66	13.957377178506
7	68	67	13.932528918332
7	69	68	13.977439161665
7	70	69	13.873707558191
7	71	70	13.945779315263
7	72	71	13.942668949808
7	73	72	13.91575948562
7	74	73	13.907857767178
7	75	74	13.74288410399
7	76	75	12.057991498623
7	77	76	7.5687227125094
7	78	77	7.8527784139012
7	79	78	9.8502493766883
7	80	79	11.94908444162
7	81	80	13.947927183691
7	82	81	13.884608772129
7	83	82	13.932486002932
7	84	83	13.933768573357
7	85	84	13.982790281298
7	86	85	13.883384850675
7	87	86	13.990208008899
7	88	87	13.960943002203
7	89	88	13.999323605334
7	90	89	13.898829272678
7	91	90	13.923322260124
7	92	91	13.97501944537
7	93	92	13.884102251558
7	94	93	13.933503699079
7	95	94	13.929935510485
7	96	95	13.932084917249
7	97	96	13.988024637371
7	98	97	13.905199357776
7	99	98	13.983067730833
7	100	99	13.914689087677
7	101	100	13.959573372188
7	102	101	13.923151327679
7	103	102	13.932330102022
7	104	103	13.918786156045
7	105	104	13.941547459932
7	106	105	13.993384758611
7	107	106	13.9334619325
7	108	107	13.965882125574
7	109	108	13.965947124253
7	110	109	13.962241288945
7	111	110	13.920445105487
7	112	111	13.900235885235
7	113	112	13.927397497708
7	114	113	13.881139268694
7	115	114	13.958390111653
7	116	115	13.981258456206
7	117	116	13.984943927396
7	118	117	13.922500399102
7	119	118	13.970498575137
7	120	119	13.977092044705
7	121	120	13.902077802429
7	123	121	13.948530204676
7	124	122	13.778322368322
7	125	123	10.388071325643
7	126	124	12.048368769422
7	127	125	13.869278359864
7	128	126	13.887921628156
7	129	127	13.997254950008
7	130	128	13.896713757399
7	131	129	13.888332184691
7	132	130	13.881382933802
7	133	131	13.9793959553
7	134	132	13.874559563915
7	316	133	13.955679739479
7	317	134	13.938250236956
7	3426	135	13.956001663669
7	3427	136	13.911734939432
8	7	6	1.7932460927567
8	8	7	1.9587017235276
8	9	8	1.7806746143266
8	10	9	1.8842620940111
8	11	10	1.9413380167005
8	12	11	0.5583961215709
8	13	12	-0.073857417434921
8	14	13	0.0092065779981212
8	15	14	0.10214026641101
8	16	15	-0.096765000070445
8	17	16	-0.0036033386224883
8	18	17	0.039975998615846
8	19	18	-0.036115438612178
8	20	19	0.074191348995083
8	21	20	-0.018364551486448
8	22	21	-0.84955461610103
8	23	22	-1.1580047743662
8	24	23	-4.4608324981877
8	25	24	0.38092674279862
8	26	25	1.7156944106473
8	27	26	2.0360211738362
8	28	27	1.9703013633797
8	29	28	0.39196811840698
8	30	29	-0.054819778876846
8	31	30	0.010270397982096
8	32	31	0.056614504742901
8	33	32	-0.029954661100637
8	34	33	-0.016613695521373
8	35	34	-0.030163104203529
8	36	35	0.018933158169965
8	37	36	-0.029659791311714
8	38	37	0.091685234303586
8	39	38	-0.045763628156855
8	40	39	-0.039857979963999
8	41	40	0.065247988859191
8	42	41	-0.08489584519295
8	43	42	-0.0022564603248618
8	44	43	0.045091817758511
8	45	44	-0.0043246553349299
8	46	45	0.029991914208512
8	47	46	0.015533079409506
8	48	47	-0.0495849183877
8	49	48	0.0027827199501917
8	50	49	-0.024452327373437
8	51	50	0.067736270520836
8	52	51	-0.053276539789513
8	53	52	0.063070073074195
8	54	53	-0.0090693579427903
8	55	54	0.024193826443517
8	56	55	-0.037865431425162
8	57	56	-0.058954789221753
8	58	57	0.065368110591081
8	59	58	-0.024500538792926
8	60	59	0.048295230567454
8	61	60	-0.027506586005911
8	62	61	-3.7945064249811e-05
8	63	62	-0.040341942564119
8	64	63	0.08445247764932
8	65	64	-0.065610413609539
8	66	65	0.021565600365866
8	67	66	0.0028431761614058
8	68	67	-0.024848260174041
8	69	68	0.044910243332852
8	70	69	-0.10373160347343
8	71	70	0.072071757072118
8	72	71	-0.0031103654555054
8	73	72	-0.02690946418792
8	74	73	-0.0079017184418628
8	75	74	-0.16497366318824
8	76	75	-1.6848926053673
8	77	76	-4.4892687861132
8	78	77	0.28405570139177
8	79	78	1.997470962787
8	80	79	2.0988350649318
8	81	80	1.9988427420706
8	82	81	-0.063318411561289
8	83	82	0.04787723080255
8	84	83	0.0012825704249551
8	85	84	0.049021707940847
8	86	85	-0.099405430622864
8	87	86	0.10682315822458
8	88	87	-0.029265006696805
8	89	88	0.038380603131372
8	90	89	-0.1004943326558
8	91	90	0.024492987445557
8	92	91	0.05169718524674
8	93	92	-0.090917193812784
8	94	93	0.049401447521522
8	95	94	-0.0035681885946541
8	96	95	0.0021494067646568
8	97	96	0.055939720121678
8	98	97	-0.082825279594399
8	99	98	0.077868373056408
8	100	99	-0.068378643156029
8	101	100	0.044884284511209
8	102	101	-0.036422044509091
8	103	102	0.0091787743428728
8	104	103	-0.013543945976998
8	105	104	0.022761303887236
8	106	105	0.051837298679166
8	107	106	-0.059922826110851
8	108	107	0.032420193073339
8	109	108	6.4998678864114e-05
8	110	109	-0.0037058353074837
8	111	110	-0.041796183458063
8	112	111	-0.020209220252001
8	113	112	0.02716161247343
8	114	113	-0.04625822901493
8	115	114	0.07725084295962
8	116	115	0.022868344553281
8	117	116	0.003685471189673
8	118	117	-0.062443528294096
8	119	118	0.04799817603547
8	120	119	0.0065934695675978
8	121	120	-0.075014242276085
8	123	121	0.046452402246651
8	124	122	-0.17020783635411
8	125	123	-3.3902510426788
8	126	124	1.6602974437791
8	127	125	1.8209095904417
8	128	126	0.018643268292182
8	129	127	0.10933332185261
8	130	128	-0.10054119260982
8	131	129	-0.0083815727080214
8	132	130	-0.0069492508890114
8	133	131	0.098013021498918
8	134	132	-0.10483639138518
8	316	133	0.081120175563266
8	317	134	-0.017429502522573
8	3426	135	0.017751426713074
8	3427	136	-0.044266724237239
9	7	6	3.9274001426868
9	8	7	5.2041356246368
9	9	8	5.7574507674447
9	10	9	7.0006276784153
9	11	10	8.2432295261252
9	12	11	3.9110016848773
9	13	12	1.7792042638201
9	14	13	2.0579365757541
9	15	14	2.3818636967155
9	16	15	1.7037407999188
9	17	16	2.0152488537881
9	18	17	2.1655550639215
9	19	18	1.906797412239
9	20	19	2.2849654495652
9	21	20	1.9716653983805
9	22	21	0.973
9	23	22	0.973
9	24	23	0.973
9	25	24	2.2554772362628
9	26	25	5.6120472675651
9	27	26	7.5119842129131
9	28	27	8.4455276517466
9	29	28	3.3560730035355
9	30	29	1.8466200733259
9	31	30	2.0660268329645
9	32	31	2.2281549844786
9	33	32	1.9335288120447
9	34	33	1.9767670407741
9	35	34	1.9283950769156
9	36	35	2.0949799016024
9	37	36	1.9290667558988
9	38	37	2.3468857079218
9	39	38	1.8793040227889
9	40	39	1.8954681876561
9	41	40	2.2553467174174
9	42	41	1.7429567241042
9	43	42	2.0192482635441
9	44	43	2.1827359052182
9	45	44	2.0164367628106
9	46	45	2.1348602115454
9	47	46	2.0878872407227
9	48	47	1.8642059318509
9	49	48	2.0401536442479
9	50	49	1.9464315106901
9	51	50	2.2632042711189
9	52	51	1.851180617826
9	53	52	2.2486511283506
9	54	53	2.0047870143605
9	55	54	2.1193583924862
9	56	55	1.9065956504161
9	57	56	1.8305118457369
9	58	57	2.2544630998412
9	59	58	1.9497933768092
9	60	59	2.199742909699
9	61	60	1.9416842431598
9	62	61	2.0340583936544
9	63	62	1.8947902862501
9	64	63	2.3236156337703
9	65	64	1.8116807487081
9	66	65	2.1067187558746
9	67	66	2.0440470145686
9	68	67	1.9485115452067
9	69	68	2.1878187851485
9	70	69	1.6791237400594
9	71	70	2.2755265645048
9	72	71	2.0225291815531
9	73	72	1.9399893034582
9	74	73	2.0029455902709
9	75	74	1.4663345211208
9	76	75	0.973
9	77	76	0.973
9	78	77	2.0711335261948
9	79	78	6.4152831024102
9	80	79	7.8881081638602
9	81	80	8.7525284671264
9	82	81	1.815189301835
9	83	82	2.1926999225795
9	84	83	2.0363789456198
9	85	84	2.2022797105907
9	86	85	1.6943401481553
9	87	86	2.3980130110749
9	88	87	1.9363832529257
9	89	88	2.1682681767827
9	90	89	1.6918937064968
9	91	90	2.1131931668759
9	92	91	2.2104031609639
9	93	92	1.7227981158715
9	94	93	2.1979337916806
9	95	94	2.0197021153789
9	96	95	2.0391171435245
9	97	96	2.2261991945464
9	98	97	1.7515996111392
9	99	98	2.2995223407801
9	100	99	1.8008227620704
9	101	100	2.1857101524767
9	102	101	1.9087755896745
9	103	102	2.0627447358658
9	104	103	1.9851118107104
9	105	104	2.1093420628985
9	106	105	2.2129857683168
9	107	106	1.8308220216017
9	108	107	2.1444722311404
9	109	108	2.0355784928867
9	110	109	2.0225109202385
9	111	110	1.8904941269999
9	112	111	1.9609544694714
9	113	112	2.1225900669388
9	114	113	1.8719619172019
9	115	114	2.2944565722334
9	116	115	2.1139814038152
9	117	116	2.0497258004765
9	118	117	1.8214044611061
9	119	118	2.1974299774128
9	120	119	2.0587102346889
9	121	120	1.7775142086521
9	123	121	2.1897334323985
9	124	122	1.4511143115378
9	125	123	0.973
9	126	124	6.6737161747454
9	127	125	8.111890265462
9	128	126	2.0898004491778
9	129	127	2.4073844446733
9	130	128	1.691572710787
9	131	129	1.9993895224701
9	132	130	2.0034887449264
9	133	131	2.3669454108717
9	134	132	1.6754948373422
9	316	133	2.3071428409499
9	317	134	1.9739816777468
9	3426	135	2.094047818754
9	3427	136	1.8814111623109
10	8	7	2414.8848622198
10	9	8	2412.0691307599
10	10	9	2407.3819784434
10	11	10	2402.4639103656
10	12	11	2396.2016479742
10	13	12	2388.5021761758
10	14	13	2379.5347220144
10	15	14	2369.7521497252
10	16	15	2359.9648396304
10	17	16	2350.1637192596
10	18	17	2340.717056727
10	19	18	2334.4889366638
10	20	19	2338.0188398167
10	21	20	2348.6970945761
10	22	21	2359.0578910074
10	23	22	2372.1753142256
10	24	23	2385.9847009928
10	25	24	2399.0560799135
10	26	25	2411.469456295
10	27	26	2420.8240344936
10	28	27	2428.2511095385
10	29	28	2431.5096723901
10	30	29	2433.2168502312
10	31	30	2435.2011956087
10	32	31	2437.29147981
10	33	32	2438.672857787
10	34	33	2439.5458305131
10	35	34	2440.5569901068
10	36	35	2441.5662171456
10	37	36	2442.5764760413
10	38	37	2443.5864360537
10	39	38	2444.5969193554
10	40	39	2445.6077267987
10	41	40	2446.6171177449
10	42	41	2447.6285385494
10	43	42	2448.6389437378
10	44	43	2449.6489775468
10	45	44	2450.659299592
10	46	45	2449.5461587089
10	47	46	2448.4337074455
10	48	47	2447.3207898499
10	49	48	2446.207873206
10	50	49	2445.0940501215
10	51	50	2443.9833638043
10	52	51	2442.8694501355
10	53	52	2441.7571938549
10	54	53	2440.6460889142
10	55	54	2439.6824932018
10	56	55	2438.741084579
10	57	56	2437.8178922307
10	58	57	2432.628875918
10	59	58	2422.099758557
10	60	59	2408.9617932498
10	61	60	2395.0275024913
10	62	61	2381.1194986589
10	63	62	2367.2108877165
10	64	63	2353.2913366285
10	65	64	2339.3363710896
10	66	65	2325.3913249692
10	67	66	2311.4476897647
10	68	67	2297.4983647275
10	69	68	2283.5801531249
10	70	69	2269.6389171832
10	71	70	2255.7127677456
10	72	71	2241.8359768615
10	73	72	2228.0496562888
10	74	73	2214.3204117303
10	75	74	2201.1356404887
10	76	75	2187.9527212165
10	77	76	2175.0638567568
10	78	77	2163.8270147669
10	79	78	2153.0802669595
10	80	79	2145.0715277719
10	81	80	2138.8791204049
10	82	81	2132.1538470712
10	83	82	2124.1794652122
10	84	83	2114.9682953636
10	85	84	2105.4503674875
10	86	85	2095.9174355941
10	87	86	2086.3855086367
10	88	87	2076.854366392
10	89	88	2067.3279705069
10	90	89	2057.7989259652
10	91	90	2048.2657166205
10	92	91	2038.283265963
10	93	92	2028.2931978384
10	94	93	2018.3027401837
10	95	94	2008.3179219114
10	96	95	1998.3240517773
10	97	96	1988.3419555381
10	98	97	1978.344027573
10	99	98	1968.3550932935
10	100	99	1958.3543494703
10	101	100	1948.3578532202
10	102	101	1938.3583427321
10	103	102	1928.618618476
10	104	103	1918.8845092345
10	105	104	1909.1398994639
10	106	105	1899.4163005566
10	107	106	1889.6917406092
10	108	107	1879.9546263734
10	109	108	1870.2146439165
10	110	109	1860.4817766254
10	111	110	1850.7588696732
10	112	111	1841.0270894129
10	113	112	1831.0817296832
10	114	113	1820.9827286402
10	115	114	1810.8857373192
10	116	115	1800.9095892153
10	117	116	1790.9641635513
10	118	117	1781.0157404179
10	119	118	1771.0520895839
10	120	119	1761.0958624202
10	121	120	1751.1472190667
10	123	121	1741.1866997886
10	124	122	1731.2337222014
10	125	123	1721.2648128434
10	126	124	1711.2935267469
10	127	125	1701.437104465
10	128	126	1691.0517040374
10	129	127	1683.3163553175
10	130	128	1674.3055752548
10	131	129	1664.3665101172
10	132	130	1654.4203300874
10	133	131	1644.4804603653
10	134	132	1634.5312484587
10	316	133	1624.5722138276
10	317	134	1617.0071936001
10	3426	135	1607.1838377831
10	3427	136	1597.363089393
11	8	7	1578.4476927174
11	9	8	1579.4816146148
11	10	9	1581.3305685576
11	11	10	1586.311893981
11	12	11	1592.6547030602
11	13	12	1600.4532072712
11	14	13	1609.5360029312
11	15	14	1619.4444009606
11	16	15	1629.3575977338
11	17	16	1639.2847824143
11	18	17	1649.4765304932
11	19	18	1661.4854336744
11	20	19	1673.8446300924
11	21	20	1682.7957309801
11	22	21	1692.1393567109
11	23	22	1695.6439150097
11	24	23	1697.4374776948
11	25	24	1698.6863156371
11	26	25	1699.860083269
11	27	26	1700.7446211064
11	28	27	1701.4003788568
11	29	28	1709.757081449
11	30	29	1720.9911797
11	31	30	1734.0491812732
11	32	31	1747.8043141738
11	33	32	1761.6824669717
11	34	33	1775.5982529195
11	35	34	1789.5036912933
11	36	35	1803.3825532272
11	37	36	1817.2756052278
11	38	37	1831.1645469936
11	39	38	1845.0606850199
11	40	39	1858.9612806309
11	41	40	1872.8423966132
11	42	41	1886.7514271513
11	43	42	1900.646490965
11	44	43	1914.536447579
11	45	44	1928.4487420022
11	46	45	1942.3421864314
11	47	46	1956.2270235084
11	48	47	1970.117681019
11	49	48	1984.0083266487
11	50	49	1997.9102858361
11	51	50	2011.7730940934
11	52	51	2025.6761838896
11	53	52	2039.5585873295
11	54	53	2053.4266205495
11	55	54	2067.3284383547
11	56	55	2081.2374921273
11	57	56	2095.1151711773
11	58	57	2107.8121583294
11	59	58	2116.6019557538
11	60	59	2120.9589145361
11	61	60	2120.4882719275
11	62	61	2120.0185171831
11	63	62	2119.548741932
11	64	63	2119.0785971684
11	65	64	2118.6072562514
11	66	65	2118.1362503711
11	67	66	2117.6652921457
11	68	67	2117.1941417418
11	69	68	2116.724042221
11	70	69	2116.2531650327
11	71	70	2115.7827974036
11	72	71	2114.7194869779
11	73	72	2112.7644801643
11	74	73	2110.4801872596
11	75	74	2106.008526748
11	76	75	2101.537494339
11	77	76	2096.3761414643
11	78	77	2089.7611900093
11	79	78	2083.4347492605
11	80	79	2078.7201309539
11	81	80	2074.7913125623
11	82	81	2067.9696007185
11	83	82	2059.456939172
11	84	83	2049.6240050644
11	85	84	2039.46360642
11	86	85	2029.28719097
11	87	86	2019.1118482901
11	88	87	2008.9373432929
11	89	88	1998.7679050388
11	90	89	1988.5956393415
11	91	90	1978.4189277124
11	92	91	1968.6963263936
11	93	92	1958.9849919388
11	94	93	1949.2732788222
11	95	94	1939.5670477431
11	96	95	1929.8520173589
11	97	96	1920.1484323656
11	98	97	1910.4294573683
11	99	98	1900.7192251235
11	100	99	1890.9975128332
11	101	100	1881.2799296053
11	102	101	1871.5594162391
11	103	102	1861.6144378353
11	104	103	1851.6395045156
11	105	104	1841.6538108811
11	106	105	1831.6896479232
11	107	106	1821.7245001495
11	108	107	1811.7464874918
11	109	108	1801.7655356517
11	110	109	1791.7918750085
11	111	110	1781.8284211252
11	112	111	1771.8558744062
11	113	112	1762.0805575438
11	114	113	1752.4890809525
11	115	114	1742.8995130844
11	116	115	1733.1746939719
11	117	116	1723.4280522568
11	118	117	1713.6784729837
11	119	118	1703.9139703736
11	120	119	1694.1567430533
11	121	120	1684.4069479629
11	123	121	1674.6455143169
11	124	122	1664.8914716225
11	125	123	1655.121815593
11	126	124	1645.3498303303
11	127	125	1635.6904130448
11	128	126	1630.1367357271
11	129	127	1622.5559648303
11	130	128	1613.7252499228
11	131	129	1603.9848001432
11	132	130	1594.2373776501
11	133	131	1584.4961393643
11	134	132	1574.7457455816
11	316	133	1564.9857253646
11	317	134	1552.9419674892
11	3426	135	1543.0257438123
11	3427	136	1533.1121522132
12	9	8	3.930963162637
12	10	9	5.9263112237273
12	11	10	7.8381960794392
12	12	11	9.790430662247
12	13	12	11.728100012452
12	14	13	13.629514704516
12	15	14	13.941568216505
12	16	15	13.881279769889
12	17	16	13.897868440901
12	18	17	13.925429278756
12	19	18	13.988464023101
12	20	19	13.968606978769
12	21	20	13.918509052745
12	22	21	13.924308654484
12	23	22	13.951645852409
12	24	23	13.87926841794
12	25	24	12.793519969494
12	26	25	11.84351296104
12	27	26	7.4038563960913
12	28	27	8.4727548549238
12	29	28	10.367830629347
12	30	29	12.18869854925
12	31	30	13.961659159465
12	32	31	13.954832898835
12	33	32	13.985199820679
12	34	33	13.894128147855
12	35	34	13.93747920732
12	36	35	13.922516686122
12	37	36	13.936551663636
12	38	37	13.899921349036
12	39	38	13.905686459227
12	40	39	13.974518650502
12	41	40	13.926188751743
12	42	41	13.91506882193
12	43	42	13.902084701743
12	44	43	13.906688486487
12	45	44	13.974945872892
12	46	45	13.897515056985
12	47	46	13.921723058985
12	48	47	13.971591069859
12	49	48	13.925448836959
12	50	49	13.871581884674
12	51	50	13.876423048137
12	52	51	13.873938687814
12	53	52	13.902598275633
12	54	53	13.87539361449
12	55	54	13.972987024514
12	56	55	13.957628285089
12	57	56	13.950985880545
12	58	57	13.943263569523
12	59	58	13.891897078918
12	60	59	13.874182712052
12	61	60	13.982985400616
12	62	61	13.927164004399
12	63	62	13.899862960158
12	64	63	13.960168966714
12	65	64	13.961850514959
12	66	65	13.962242161995
12	67	66	13.925234322341
12	68	67	13.991972472956
12	69	68	13.975208927125
12	70	69	13.946616810667
12	71	70	13.894927249895
12	72	71	13.997537077854
12	73	72	13.937148143742
12	74	73	13.949254455173
12	75	74	13.872561737457
12	76	75	13.941436031195
12	77	76	13.877849130908
12	78	77	12.619268954948
12	79	78	11.767659231051
12	80	79	7.2714327337119
12	81	80	8.4181567059542
12	82	81	10.470719517201
12	83	82	12.55852173912
12	84	83	13.888510530582
12	85	84	13.878650632019
12	86	85	13.945760953585
12	87	86	13.92992599302
12	88	87	13.882018232113
12	89	88	13.939167882889
12	90	89	13.977764886424
12	91	90	13.894534370045
12	92	91	13.966682291413
12	93	92	13.930039903398
12	94	93	13.975413697299
12	95	94	13.895980606813
12	96	95	13.916025194719
12	97	96	13.874023362922
12	98	97	13.903165594626
12	99	98	13.893743275884
12	100	99	13.891417812335
12	101	100	13.984807741477
12	102	101	13.97742042881
12	103	102	13.879850411245
12	104	103	13.943355088918
12	105	104	13.925188815154
12	106	105	13.917930745294
12	107	106	13.87493168453
12	108	107	13.921017476872
12	109	108	13.990385143103
12	110	109	13.935680139754
12	111	110	13.969463695099
12	112	111	13.889440936679
12	113	112	13.989204638558
12	114	113	13.933531372249
12	115	114	13.906106956222
12	116	115	13.986745798232
12	117	116	13.939984536606
12	118	117	13.872806662985
12	119	118	13.997721134285
12	120	119	13.972812251244
12	121	120	13.969063766259
12	123	121	13.964874761493
12	124	122	13.975246083164
12	125	123	13.989577336928
12	126	124	13.953315523618
12	127	125	13.159897187547
12	128	126	9.8127414248228
12	129	127	11.621864494041
12	130	128	13.490646563423
12	131	129	13.965957259275
12	132	130	13.998776619676
12	133	131	13.994756391337
12	134	132	13.948147744578
12	316	133	13.885644056639
12	317	134	13.964048065192
12	3426	135	13.922101011877
12	3427	136	13.994347229733
13	10	9	1.9953480610903
13	11	10	1.9118848557118
13	12	11	1.9522345828079
13	13	12	1.9376693502045
13	14	13	1.9014146920643
13	15	14	0.31205351198868
13	16	15	-0.060288446615449
13	17	16	0.016588671011849
13	18	17	0.027560837855562
13	19	18	0.063034744344186
13	20	19	-0.019857044331729
13	21	20	-0.050097926023881
13	22	21	0.0057996017392714
13	23	22	0.027337197924499
13	24	23	-0.072377434468363
13	25	24	-1.0857484484466
13	26	25	-0.95000700845353
13	27	26	-4.439656564949
13	28	27	1.0688984588324
13	29	28	1.8950757744233
13	30	29	1.8208679199032
13	31	30	1.7729606102145
13	32	31	-0.0068262606300422
13	33	32	0.03036692184396
13	34	33	-0.091071672823745
13	35	34	0.043351059465204
13	36	35	-0.01496252119774
13	37	36	0.014034977513365
13	38	37	-0.036630314600188
13	39	38	0.0057651101914225
13	40	39	0.068832191275433
13	41	40	-0.048329898759256
13	42	41	-0.01111992981285
13	43	42	-0.012984120186884
13	44	43	0.0046037847432316
13	45	44	0.068257386405021
13	46	45	-0.077430815906265
13	47	46	0.02420800199965
13	48	47	0.049868010873906
13	49	48	-0.046142232900019
13	50	49	-0.053866952285171
13	51	50	0.0048411634634249
13	52	51	-0.0024843603232867
13	53	52	0.028659587819128
13	54	53	-0.027204661143477
13	55	54	0.09759341002442
13	56	55	-0.015358739425428
13	57	56	-0.0066424045432356
13	58	57	-0.007722311022226
13	59	58	-0.051366490605288
13	60	59	-0.017714366866276
13	61	60	0.10880268856417
13	62	61	-0.055821396217215
13	63	62	-0.027301044240593
13	64	63	0.06030600655591
13	65	64	0.0016815482452515
13	66	65	0.00039164703572148
13	67	66	-0.037007839654107
13	68	67	0.066738150615711
13	69	68	-0.0167635458312
13	70	69	-0.028592116457874
13	71	70	-0.051689560771921
13	72	71	0.10260982795851
13	73	72	-0.060388934111689
13	74	73	0.01210631143069
13	75	74	-0.076692717715632
13	76	75	0.068874293738045
13	77	76	-0.063586900287774
13	78	77	-1.2585801759596
13	79	78	-0.85160972389679
13	80	79	-4.4962264973393
13	81	80	1.1467239722423
13	82	81	2.0525628112466
13	83	82	2.0878022219194
13	84	83	1.3299887914615
13	85	84	-0.0098598985630094
13	86	85	0.067110321565998
13	87	86	-0.015834960564971
13	88	87	-0.047907760906964
13	89	88	0.057149650775827
13	90	89	0.038597003535834
13	91	90	-0.0832305163797
13	92	91	0.072147921368014
13	93	92	-0.036642388014588
13	94	93	0.045373793900945
13	95	94	-0.079433090486564
13	96	95	0.020044587906449
13	97	96	-0.04200183179695
13	98	97	0.029142231703736
13	99	98	-0.0094223187421445
13	100	99	-0.0023254635487682
13	101	100	0.093389929141848
13	102	101	-0.0073873126669781
13	103	102	-0.097570017564577
13	104	103	0.063504677673336
13	105	104	-0.0181662737648
13	106	105	-0.0072580698598177
13	107	106	-0.042999060763977
13	108	107	0.0460857923422
13	109	108	0.069367666230537
13	110	109	-0.054705003348644
13	111	110	0.033783555345144
13	112	111	-0.080022758420091
13	113	112	0.09976370187942
13	114	113	-0.055673266309315
13	115	114	-0.027424416027497
13	116	115	0.08063884200994
13	117	116	-0.046761261625216
13	118	117	-0.067177873621695
13	119	118	0.12491447129985
13	120	119	-0.024908883040771
13	121	120	-0.0037484849849712
13	123	121	-0.0041890047653581
13	124	122	0.010371321670245
13	125	123	0.014331253764686
13	126	124	-0.036261813309975
13	127	125	-0.79341833607121
13	128	126	-3.3471557627243
13	129	127	1.8091230692179
13	130	128	1.8687820693827
13	131	129	0.47531069585156
13	132	130	0.032819360401481
13	133	131	-0.0040202283393587
13	134	132	-0.046608646758832
13	316	133	-0.062503687939605
13	317	134	0.078404008552896
13	3426	135	-0.041947053314651
13	3427	136	0.072246217855717
14	10	9	4.2649508166984
14	11	10	5.1441608835298
14	12	11	6.2752675611406
14	13	12	7.3015557220543
14	14	13	8.2469806235914
14	15	14	3.0813423760871
14	16	15	1.825038103975
14	17	16	2.0839753981971
14	18	17	2.1237162576214
14	19	18	2.2501690272635
14	20	19	1.9687844028223
14	21	20	1.8624692368163
14	22	21	2.0505690853877
14	23	22	2.1258147014109
14	24	23	1.7844264067381
14	25	24	0.973
14	26	25	0.973
14	27	26	0.973
14	28	27	3.7575341079103
14	29	28	6.4482222684255
14	30	29	7.2140195323343
14	31	30	8.0005078452345
14	32	31	2.0112657729674
14	33	32	2.1396802881933
14	34	33	1.7230808185304
14	35	34	2.1780640158967
14	36	35	1.980720158986
14	37	36	2.0794954629949
14	38	37	1.9059152732614
14	39	38	2.0485298427513
14	40	39	2.2680539427787
14	41	40	1.8690933945628
14	42	41	1.9928741031296
14	43	42	1.9853406570184
14	44	43	2.0447410785649
14	45	44	2.2661688405632
14	46	45	1.7690384486571
14	47	46	2.1120645090544
14	48	47	2.2038504354464
14	49	48	1.8763684319447
14	50	49	1.8456610488087
14	51	50	2.0424227277346
14	52	51	2.0176736696174
14	53	52	2.1249196677245
14	54	53	1.9351566644326
14	55	54	2.3647248781457
14	56	55	1.9828454643184
14	57	56	2.0114971183472
14	58	57	2.007091813677
14	59	58	1.8558336695686
14	60	59	1.9667740746073
14	61	60	2.4037578966905
14	62	61	1.844036691971
14	63	62	1.9371616602798
14	64	63	2.2376623461065
14	65	64	2.0405988072341
14	66	65	2.0362986285583
14	67	66	1.9070037954822
14	68	67	2.2630700095878
14	69	68	1.9798474403324
14	70	69	1.9372818212763
14	71	70	1.8550225742329
14	72	71	2.3847397299678
14	73	72	1.8295794064806
14	74	73	2.0743518631084
14	75	74	1.7694347592009
14	76	75	2.2642644670172
14	77	76	1.8137074180615
14	78	77	0.973
14	79	78	0.973
14	80	79	0.973
14	81	80	3.8976468345674
14	82	81	6.9006815444997
14	83	82	8.2177466262902
14	84	83	6.4791082854315
14	85	84	1.9934802295803
14	86	85	2.2588493406892
14	87	86	1.9785202232272
14	88	87	1.866522840978
14	89	88	2.2246081928829
14	90	89	2.1665886194004
14	91	90	1.7493699939429
14	92	91	2.2782826967557
14	93	92	1.908677970281
14	94	93	2.1891507767845
14	95	94	1.7622054562569
14	96	95	2.0974873772285
14	97	96	1.8855500369507
14	98	97	2.1265985206215
14	99	98	1.996444163955
14	100	99	2.0199719555639
14	101	100	2.3520461315502
14	102	101	2.0116492969017
14	103	102	1.7002051043368
14	104	103	2.2464484993577
14	105	104	1.9702312999156
14	106	105	2.0061116329298
14	107	106	1.8822985255134
14	108	107	2.1853876837731
14	109	108	2.2717476857686
14	110	109	1.8485404127022
14	111	110	2.1494565898783
14	112	111	1.7596915426568
14	113	112	2.3740841163565
14	114	113	1.8450980460308
14	115	114	1.9373428051763
14	116	115	2.3093068646242
14	117	116	1.8756103342285
14	118	117	1.801266530449
14	119	118	2.4600067714863
14	120	119	1.9521828081964
14	121	120	2.0230591338095
14	123	121	2.0211517866372
14	124	122	2.0712422583981
14	125	123	2.0860967845469
14	126	124	1.9121288124097
14	127	125	0.973
14	128	126	0.973
14	129	127	6.8827668076009
14	130	128	8.0634732744472
14	131	129	3.6351594535493
14	132	130	2.1494450298412
14	133	131	2.0247508052563
14	134	132	1.8768650272918
14	316	133	1.8180051860116
14	317	134	2.2990212706405
14	3426	135	1.8901400637164
14	3427	136	2.2819283461995
15	11	10	2414.8652957816
15	12	11	2411.9402292009
15	13	12	2407.1594214574
15	14	13	2402.0350675649
15	15	14	2395.5354035812
15	16	15	2387.5598131203
15	17	16	2378.2983909701
15	18	17	2368.4972038758
15	19	18	2358.719633554
15	20	19	2348.9248444787
15	21	20	2339.614370346
15	22	21	2334.1997176057
15	23	22	2339.4193692133
15	24	23	2350.023330241
15	25	24	2360.3662725991
15	26	25	2373.90233667
15	27	26	2387.7152259793
15	28	27	2400.5914429313
15	29	28	2412.9398871803
15	30	29	2421.7139854309
15	31	30	2429.0882121673
15	32	31	2431.6639768599
15	33	32	2433.4302155024
15	34	33	2435.4611475593
15	35	34	2437.5533698815
15	36	35	2438.7684759141
15	37	36	2439.671540139
15	38	37	2440.6813741141
15	39	38	2441.6917844916
15	40	39	2442.7022041357
15	41	40	2443.7124593587
15	42	41	2444.7229332504
15	43	42	2445.7337078364
15	44	43	2446.7459111849
15	45	44	2447.757486716
15	46	45	2448.7683903823
15	47	46	2449.7777371067
15	48	47	2450.5176811377
15	49	48	2449.4057673637
15	50	49	2448.2921364765
15	51	50	2447.1808208324
15	52	51	2446.0691226661
15	53	52	2444.9566500478
15	54	53	2443.8447802094
15	55	54	2442.731477023
15	56	55	2441.6197022425
15	57	56	2440.5080080784
15	58	57	2439.5670555097
15	59	58	2438.6556009268
15	60	59	2437.5062560235
15	61	60	2431.5722499692
15	62	61	2420.527699944
15	63	62	2407.2382113171
15	64	63	2393.3269784888
15	65	64	2379.3955530388
15	66	65	2365.4745847809
15	67	66	2351.529199079
15	68	67	2337.6079130118
15	69	68	2323.6725767179
15	70	69	2309.7385225614
15	71	70	2295.8080973643
15	72	71	2281.8952010303
15	73	72	2267.9654732505
15	74	73	2254.0466482575
15	75	74	2240.2066991659
15	76	75	2226.4173803013
15	77	76	2212.7662110776
15	78	77	2199.5729332234
15	79	78	2186.3872113026
15	80	79	2173.6474240444
15	81	80	2162.5677132215
15	82	81	2151.8935926168
15	83	82	2144.3555114834
15	84	83	2138.2247302437
15	85	84	2131.6834204124
15	86	85	2123.8660908783
15	87	86	2114.7614731657
15	88	87	2105.2411713355
15	89	88	2095.7108763196
15	90	89	2086.1925951599
15	91	90	2076.6852548176
15	92	91	2067.1594253494
15	93	92	2057.632607371
15	94	93	2048.1022976771
15	95	94	2038.1078835877
15	96	95	2028.1127831832
15	97	96	2018.1190521012
15	98	97	2008.1323748323
15	99	98	1998.1359312494
15	100	99	1988.1404383939
15	101	100	1978.1503242605
15	102	101	1968.1436147648
15	103	102	1958.1542866336
15	104	103	1948.1541734936
15	105	104	1938.1578784987
15	106	105	1928.3954472626
15	107	106	1918.6526167148
15	108	107	1908.9362453276
15	109	108	1899.2078825037
15	110	109	1889.4688579363
15	111	110	1879.7255672845
15	112	111	1870.0024786359
15	113	112	1860.269699625
15	114	113	1850.5221751429
15	115	114	1840.7925010396
15	116	115	1830.8378176877
15	117	116	1820.7311530442
15	118	117	1810.6303230971
15	119	118	1800.6606490531
15	120	119	1790.7039333233
15	121	120	1780.7547139085
15	123	121	1770.812602922
15	124	122	1760.8594679676
15	125	123	1750.9080659115
15	126	124	1740.9698605161
15	127	125	1731.0162873506
15	128	126	1721.0584494321
15	129	127	1711.0982852598
15	130	128	1701.2494283929
15	131	129	1690.9051421419
15	132	130	1683.2039127219
15	133	131	1674.2738315108
15	134	132	1664.3854908599
15	316	133	1654.4298865611
15	317	134	1644.4767847469
15	3426	135	1634.5143357166
15	3427	136	1624.5663081928
16	11	10	1578.4548774119
16	12	11	1579.5289465943
16	13	12	1581.5559881236
16	14	13	1586.7462526578
16	15	14	1593.3295168448
16	16	15	1601.4076912217
16	17	16	1610.7882359559
16	18	17	1620.7154882178
16	19	18	1630.6188199436
16	20	19	1640.5395918936
16	21	20	1650.8881406859
16	22	21	1663.2272230769
16	23	22	1674.9756418047
16	24	23	1683.991763521
16	25	24	1693.3192880014
16	26	25	1695.9020503219
16	27	26	1697.6139621651
16	28	27	1698.8314944636
16	29	28	1699.9991223291
16	30	29	1700.8287719106
16	31	30	1701.8119543158
16	32	31	1710.77248332
16	33	32	1722.3952316754
16	34	33	1735.7597972872
16	35	34	1749.5276840087
16	36	35	1763.4065813264
16	37	36	1777.3270081691
16	38	37	1791.2142166747
16	39	38	1805.1093518483
16	40	39	1819.0046144547
16	41	40	1832.8976159496
16	42	41	1846.7936245678
16	43	42	1860.6937683271
16	44	43	1874.6135603888
16	45	44	1888.5247187214
16	46	45	1902.4266375881
16	47	46	1916.3071454344
16	48	47	1930.2163243052
16	49	48	1944.0944528161
16	50	49	1957.9940131316
16	51	50	1971.8646762054
16	52	51	1985.7401136523
16	53	52	1999.6252172682
16	54	53	2013.5027974071
16	55	54	2027.3982675895
16	56	55	2041.2746612821
16	57	56	2055.1500487765
16	58	57	2069.0339985425
16	59	58	2082.9232102502
16	60	59	2096.7668430749
16	61	60	2109.1502521159
16	62	61	2117.3046830418
16	63	62	2120.90069908
16	64	63	2120.4308352731
16	65	64	2119.9602894429
16	66	65	2119.4900968131
16	67	66	2119.0190794626
16	68	67	2118.5488760993
16	69	68	2118.0781981768
16	70	69	2117.6075635599
16	71	70	2117.1370515134
16	72	71	2116.6671315199
16	73	72	2116.1966430303
16	74	73	2115.7265227912
16	75	74	2114.4884428075
16	76	75	2112.5330108125
16	77	76	2109.9530747626
16	78	77	2105.4785292046
16	79	78	2101.0065462673
16	80	79	2095.5423098914
16	81	80	2089.0198590728
16	82	81	2082.7361728121
16	83	82	2078.2986234706
16	84	83	2074.2687771348
16	85	84	2067.4674197342
16	86	85	2059.1224117205
16	87	86	2049.4032221371
16	88	87	2039.2402892942
16	89	88	2029.0666887136
16	90	89	2018.9059129385
16	91	90	2008.756816498
16	92	91	1998.5879828949
16	93	92	1988.4180940567
16	94	93	1978.2444778075
16	95	94	1968.5258373758
16	96	95	1958.8096110467
16	97	96	1949.0947158355
16	98	97	1939.3866776275
16	99	98	1929.6691455971
16	100	99	1919.9525377667
16	101	100	1910.2411585869
16	102	101	1900.5136470739
16	103	102	1890.8030319661
16	104	103	1881.0819327626
16	105	104	1871.3645451739
16	106	105	1861.3857453149
16	107	106	1851.4018749222
16	108	107	1841.445118295
16	109	108	1831.4760735603
16	110	109	1821.4961033091
16	111	110	1811.5117614288
16	112	111	1801.5481213536
16	113	112	1791.5745511744
16	114	113	1781.5858707186
16	115	114	1771.6154822633
16	116	115	1761.8489033254
16	117	116	1752.2501482666
16	118	117	1742.6569346823
16	119	118	1732.9307294944
16	120	119	1723.1730233738
16	121	120	1713.4226637352
16	123	121	1703.6792704454
16	124	122	1693.9250735296
16	125	123	1684.1725748749
16	126	124	1674.4330091141
16	127	125	1664.678382745
16	128	126	1654.9195768656
16	129	127	1645.1584912278
16	130	128	1635.5064881435
16	131	129	1629.9931026222
16	132	130	1622.4457692094
16	133	131	1613.6941405237
16	134	132	1604.0034015877
16	316	133	1594.2467431538
16	317	134	1584.4925371967
16	3426	135	1574.7291708123
16	3427	136	1564.9799377443
17	12	11	4.0076977833542
17	13	12	6.1677344774264
17	14	13	8.1549676716625
17	15	14	10.178332106699
17	16	15	12.262859039094
17	17	16	13.909239285488
17	18	17	13.972104677679
17	19	18	13.964405047395
17	20	19	13.904001857305
17	21	20	13.959390929798
17	22	21	13.878038117993
17	23	22	13.946876353603
17	24	23	13.944667257406
17	25	24	13.919344021892
17	26	25	13.927560248445
17	27	26	13.871213583788
17	28	27	12.691334807668
17	29	28	11.253789109264
17	30	29	6.8021452137647
17	31	30	8.5806848426844
17	32	31	10.511503565412
17	33	32	12.634297992723
17	34	33	13.965718502484
17	35	34	13.984844662666
17	36	35	13.956789441942
17	37	36	13.956542154332
17	38	37	13.917345386401
17	39	38	13.978046209081
17	40	39	13.982312166321
17	41	40	13.915473192113
17	42	41	13.879970237834
17	43	42	13.897895857247
17	44	43	13.999869057706
17	45	44	13.978634591533
17	46	45	13.942230677728
17	47	46	13.955766034983
17	48	47	13.950300372976
17	49	48	13.917481608128
17	50	49	13.942320762996
17	51	50	13.893100212866
17	52	51	13.91633811252
17	53	52	13.928179549885
17	54	53	13.968941585214
17	55	54	13.947614409933
17	56	55	13.993828555658
17	57	56	13.915365449623
17	58	57	13.876728287677
17	59	58	13.918426910553
17	60	59	13.974088552413
17	61	60	13.92781890474
17	62	61	13.871840020602
17	63	62	13.950818891171
17	64	63	13.896373478309
17	65	64	13.98123223257
17	66	65	13.934642261642
17	67	66	13.995758003502
17	68	67	13.879077432866
17	69	68	13.899420192223
17	70	69	13.964884717481
17	71	70	13.997399434138
17	72	71	13.963054893557
17	73	72	13.99507131309
17	74	73	13.959758597296
17	75	74	13.892642100183
17	76	75	13.940251250723
17	77	76	13.994889584298
17	78	77	13.944894047023
17	79	78	13.899651392188
17	80	79	13.918337521636
17	81	80	12.682299991135
17	82	81	11.222258036733
17	83	82	6.7222580367331
17	84	83	8.2824802284273
17	85	84	10.407365347124
17	86	85	12.288563672635
17	87	86	13.989832558867
17	88	87	13.923362842468
17	89	88	13.975876405358
17	90	89	13.93839835058
17	91	90	13.920164887339
17	92	91	13.987886479371
17	93	92	13.946328101926
17	94	93	13.963491377556
17	95	94	13.876388441026
17	96	95	13.944492442033
17	97	96	13.894819367053
17	98	97	13.957421940223
17	99	98	13.966641563782
17	100	99	13.914598768649
17	101	100	13.908863330737
17	102	101	13.894138623725
17	103	102	13.901235898403
17	104	103	13.94990811937
17	105	104	13.921953043812
17	106	105	13.929129816229
17	107	106	13.918974985403
17	108	107	13.907798303182
17	109	108	13.936193511211
17	110	109	13.887417494578
17	111	110	13.927996255904
17	112	111	13.929892551196
17	113	112	13.96570428649
17	114	113	13.978785165823
17	115	114	13.981824356054
17	116	115	13.9373073718
17	117	116	13.913057684219
17	118	117	13.882324437776
17	119	118	13.872364548203
17	120	119	13.973435124517
17	121	120	13.990105855605
17	123	121	13.879422403371
17	124	122	13.934984116543
17	125	123	13.919463195237
17	126	124	13.987002963829
17	127	125	13.897680616197
17	128	126	13.998768133351
17	129	127	13.934118595165
17	130	128	13.051775473607
17	131	129	9.7225835250419
17	132	130	11.620363726887
17	133	131	13.296958849915
17	134	132	13.97909525956
17	316	133	13.880690985871
17	317	134	13.991870213724
17	3426	135	13.946812053539
17	3427	136	13.907339509379
18	13	12	2.1600366940722
18	14	13	1.9872331942362
18	15	14	2.0233644350362
18	16	15	2.0845269323955
18	17	16	1.6463802463939
18	18	17	0.062865392190869
18	19	18	-0.0076996302837493
18	20	19	-0.060403190089856
18	21	20	0.055389072492252
18	22	21	-0.081352811804972
18	23	22	0.068838235610166
18	24	23	-0.0022090961970385
18	25	24	-0.025323235513643
18	26	25	0.0082162265526122
18	27	26	-0.056346664656886
18	28	27	-1.1798787761197
18	29	28	-1.4375456984038
18	30	29	-4.4516438954996
18	31	30	1.7785396289197
18	32	31	1.9308187227277
18	33	32	2.1227944273106
18	34	33	1.3314205097611
18	35	34	0.01912616018206
18	36	35	-0.028055220723617
18	37	36	-0.00024728761054682
18	38	37	-0.039196767930406
18	39	38	0.060700822679792
18	40	39	0.0042659572395483
18	41	40	-0.06683897420764
18	42	41	-0.035502954279073
18	43	42	0.017925619413145
18	44	43	0.10197320045903
18	45	44	-0.021234466172753
18	46	45	-0.036403913805263
18	47	46	0.013535357255023
18	48	47	-0.0054656620067544
18	49	48	-0.032818764848635
18	50	49	0.024839154868388
18	51	50	-0.049220550130123
18	52	51	0.023237899653614
18	53	52	0.011841437364929
18	54	53	0.040762035329827
18	55	54	-0.021327175281478
18	56	55	0.046214145724662
18	57	56	-0.078463106034324
18	58	57	-0.038637161946388
18	59	58	0.041698622875845
18	60	59	0.055661641859915
18	61	60	-0.046269647672306
18	62	61	-0.055978884138167
18	63	62	0.078978870569262
18	64	63	-0.054445412862115
18	65	64	0.084858754260932
18	66	65	-0.046589970928617
18	67	66	0.061115741860121
18	68	67	-0.11668057063594
18	69	68	0.0203427593573
18	70	69	0.065464525257703
18	71	70	0.032514716656879
18	72	71	-0.034344540580641
18	73	72	0.032016419533175
18	74	73	-0.035312715794426
18	75	74	-0.067116497112439
18	76	75	0.047609150540083
18	77	76	0.054638333574404
18	78	77	-0.049995537274517
18	79	78	-0.045242654834874
18	80	79	0.018686129447767
18	81	80	-1.2360375305007
18	82	81	-1.4600419544023
18	83	82	-4.5
18	84	83	1.5602221916942
18	85	84	2.1248851186968
18	86	85	1.8811983255111
18	87	86	1.7012688862319
18	88	87	-0.066469716399443
18	89	88	0.052513562890235
18	90	89	-0.037478054778184
18	91	90	-0.018233463240321
18	92	91	0.067721592031884
18	93	92	-0.041558377444744
18	94	93	0.017163275629283
18	95	94	-0.087102936529554
18	96	95	0.068104001006576
18	97	96	-0.0496730749798
18	98	97	0.062602573169862
18	99	98	0.0092196235596198
18	100	99	-0.052042795133312
18	101	100	-0.0057354379119339
18	102	101	-0.014724707012066
18	103	102	0.0070972746773634
18	104	103	0.04867222096771
18	105	104	-0.027955075558275
18	106	105	0.0071767724165692
18	107	106	-0.01015483082505
18	108	107	-0.011176682221704
18	109	108	0.028395208029542
18	110	109	-0.048776016633491
18	111	110	0.040578761326614
18	112	111	0.0018962952913721
18	113	112	0.035811735293828
18	114	113	0.013080879333428
18	115	114	0.0030391902313571
18	116	115	-0.044516984254587
18	117	116	-0.024249687581323
18	118	117	-0.030733246442397
18	119	118	-0.0099598895735102
18	120	119	0.10107057631481
18	121	120	0.016670731087215
18	123	121	-0.11068345223321
18	124	122	0.055561713171192
18	125	123	-0.015520921305288
18	126	124	0.067539768591523
18	127	125	-0.089322347631677
18	128	126	0.10108751715394
18	129	127	-0.064649538185913
18	130	128	-0.88234312155826
18	131	129	-3.3291919485651
18	132	130	1.8977802018449
18	133	131	1.6765951230284
18	134	132	0.68213640964514
18	316	133	-0.098404273688795
18	317	134	0.11117922785226
18	3426	135	-0.045058160184416
18	3427	136	-0.039472544160672
19	13	12	4.6399364442395
19	14	13	5.459099048015
19	15	14	6.6616810382017
19	16	15	8.0324172249288
19	17	16	7.5484463594625
19	18	17	2.247674957111
19	19	18	2.0092894812461
19	20	19	1.8266349661585
19	21	20	2.2210298717235
19	22	21	1.7543037306746
19	23	22	2.264789170887
19	24	23	2.0257606197441
19	25	24	1.9456524984792
[...]
178	317	134	-0.026187827391551
178	3426	135	0.017830054217484
178	3427	136	-0.0038715729792589
179	109	108	4.1384098388103
179	110	109	4.6983350304768
179	111	110	6.2693608943615
179	112	111	6.5322090948346
179	113	112	7.917155437987
179	114	113	4.4920532905178
179	115	114	2.1024645764927
179	116	115	1.905745845739
179	117	116	2.2468444166205
179	118	117	1.9168062362884
179	119	118	2.100251967814
179	120	119	2.2281659769828
179	121	120	2.042462932931
179	123	121	1.9818872155723
179	124	122	1.8706292918064
179	125	123	0.973
179	126	124	0.973
179	127	125	0.973
179	128	126	0.973
179	129	127	5.9277449332024
179	130	128	6.6498216677296
179	131	129	7.9147581708265
179	132	130	5.0401033426978
179	133	131	2.0002348348331
179	134	132	1.8229560644588
179	316	133	2.4173723446573
179	317	134	1.9466875483109
179	3426	135	2.0966851271208
179	3427	136	2.0231847939539
180	110	109	2414.873956427
180	111	110	2411.9601517438
180	112	111	2407.2863330556
180	113	112	2402.436129107
180	114	113	2396.345381471
180	115	114	2388.9531797325
180	116	115	2380.1309784877
180	117	116	2370.3627586985
180	118	117	2360.5787492685
180	119	118	2350.7931457192
180	120	119	2341.2672122942
180	121	120	2334.6344563016
180	123	121	2337.3397685295
180	124	122	2348.0547109792
180	125	123	2358.4038751204
180	126	124	2371.2960354103
180	127	125	2385.1272480643
180	128	126	2398.0581014185
180	129	127	2410.2799884083
180	130	128	2420.0848322439
180	131	129	2427.3855202111
180	132	130	2431.3542364435
180	133	131	2433.0560784105
180	134	132	2435.0268882584
180	316	133	2437.1191507811
180	317	134	2438.6002038948
180	3426	135	2439.4600906812
180	3427	136	2440.4705290807
181	110	109	1578.4516972676
181	111	110	1579.5216311403
181	112	111	1581.4274441581
181	113	112	1586.3400325682
181	114	113	1592.5091208294
181	115	114	1599.996402801
181	116	115	1608.9320772681
181	117	116	1618.8259381913
181	118	117	1628.7357918462
181	119	118	1638.6472601239
181	120	119	1648.7722457405
181	121	120	1660.6090579461
181	123	121	1673.2962391907
181	124	122	1682.2164133629
181	125	123	1691.5495488029
181	126	124	1695.5124905966
181	127	125	1697.3354216609
181	128	126	1698.5919501064
181	129	127	1699.7476111371
181	130	128	1700.6747245975
181	131	129	1701.2519089663
181	132	130	1708.7342338851
181	133	131	1719.9332193704
181	134	132	1732.902150277
181	316	133	1746.6703015389
181	317	134	1760.5169360861
181	3426	135	1774.4191611558
181	3427	136	1788.3146816874
182	111	110	3.9549282409494
182	112	111	5.9189079660747
182	113	112	7.6575650758726
182	114	113	9.4881841101764
182	115	114	11.371412077156
182	116	115	13.516443765616
182	117	116	13.959599067254
182	118	117	13.890169489407
182	119	118	13.986980604657
182	120	119	13.87247590584
182	121	120	13.997115664829
182	123	121	13.972008686401
182	124	122	13.997438101699
182	125	123	13.883375174878
182	126	124	13.904899818546
182	127	125	13.969925390845
182	128	126	12.340750770596
182	129	127	12.297408633299
182	130	128	7.8282220487209
182	131	129	8.170227090249
182	132	130	10.310889907238
182	133	131	12.13433977214
182	134	132	13.876518442319
182	316	133	13.910332706592
182	317	134	13.999050881448
182	3426	135	13.966560932901
182	3427	136	13.877456604769
183	112	111	1.9639797251252
183	113	112	1.7386571097979
183	114	113	1.8306190343038
183	115	114	1.8832279669796
183	116	115	2.1450316884601
183	117	116	0.44315530163829
183	118	117	-0.069429577847476
183	119	118	0.096811115250457
183	120	119	-0.11450469881762
183	121	120	0.12463975898921
183	123	121	-0.025106978428084
183	124	122	0.025429415297696
183	125	123	-0.11406292682048
183	126	124	0.021524643667508
183	127	125	0.065025572299492
183	128	126	-1.6291746202494
183	129	127	-0.043342137296335
183	130	128	-4.4691865845785
183	131	129	0.34200504152802
183	132	130	2.1406628169888
183	133	131	1.8234498649021
183	134	132	1.742178670179
183	316	133	0.033814264272806
183	317	134	0.088718174856622
183	3426	135	-0.032489948547445
183	3427	136	-0.089104328132235
184	112	111	4.2162160679125
184	113	112	4.7295265865966
184	114	113	5.8326075314163
184	115	114	6.9553988925841
184	116	115	8.977512736819
184	117	116	3.525601653959
184	118	117	1.7952125898503
184	119	118	2.363849991967
184	120	119	1.6430120903304
184	121	120	2.4589997717409
184	123	121	1.9514383537596
184	124	122	2.1243680736643
184	125	123	1.6452969762979
184	126	124	2.1012601199789
184	127	125	2.2546917150903
184	128	126	0.973
184	129	127	1.7465711442364
184	130	128	0.973
184	131	129	2.227930100972
184	132	130	7.0280481538815
184	133	131	7.1928654983199
184	134	132	7.8525077560511
184	316	133	2.1430412147098
184	317	134	2.3380651385594
184	3426	135	1.9260632557898
184	3427	136	1.7283313509204
185	113	112	2414.8746627453
185	114	113	2411.9400141494
185	115	114	2407.1603482012
185	116	115	2402.1025120807
185	117	116	2395.6343446822
185	118	117	2387.8387010127
185	119	118	2379.2860430756
185	120	119	2370.7454449463
185	121	120	2362.2123052715
185	123	121	2353.656810852
185	124	122	2345.0991862747
185	125	123	2337.3638319582
185	126	124	2333.9493048734
185	127	125	2339.5256334532
185	128	126	2348.8298294892
185	129	127	2357.8573802251
185	130	128	2368.8176030836
185	131	129	2380.8697124328
185	132	130	2392.9597783413
185	133	131	2405.074098666
185	134	132	2416.4150255239
185	316	133	2423.9094904304
185	317	134	2430.5645557401
185	3426	135	2432.0941305032
185	3427	136	2433.8728752533
186	113	112	1578.451437911
186	114	113	1579.5290255602
186	115	114	1581.5550494594
186	116	115	1586.6779406546
186	117	116	1593.2293031402
186	118	117	1601.1252162075
186	119	118	1609.7878804374
186	120	119	1618.4383297432
186	121	120	1627.0812246623
186	123	121	1635.7467618585
186	124	122	1644.4144566106
186	125	123	1653.7691801004
186	126	124	1665.1481809625
186	127	125	1675.0614565685
186	128	126	1682.9154346492
186	129	127	1691.0567060178
186	130	128	1695.1420432385
186	131	129	1696.8286799071
186	132	130	1698.1098696133
186	133	131	1699.2553594979
186	134	132	1700.3277198663
186	316	133	1700.9718858609
186	317	134	1703.8457512269
186	3426	135	1713.6031130152
186	3427	136	1725.3081579171
187	114	113	4.0468560271259
187	115	114	6.0858147059931
187	116	115	8.0796081643962
187	117	116	10.045355898595
187	118	117	11.990398769466
187	119	118	12.229444038724
187	120	119	12.145468595666
187	121	120	12.120413108224
187	123	121	12.197546068617
187	124	122	12.117113639091
187	125	123	12.163424872551
187	126	124	12.233639577409
187	127	125	12.162252672755
187	128	126	12.199177615061
187	129	127	12.155221054117
187	130	128	12.182685311225
187	131	129	12.17956743032
187	132	130	12.173655892038
187	133	131	12.233333962304
187	134	132	9.7856477679374
187	316	133	6.7056477679374
187	317	134	8.8016163967612
187	3426	135	10.695496621667
187	3427	136	12.718276252743
188	115	114	2.0389586788672
188	116	115	1.9937934584031
188	117	116	1.9657477341988
188	118	117	1.9450428708713
188	119	118	0.23904526925767
188	120	119	-0.083975443057716
188	121	120	-0.025055487442296
188	123	121	0.077132960392628
188	124	122	-0.080432429525535
188	125	123	0.046311233460438
188	126	124	0.070214704857207
188	127	125	-0.071386904653627
188	128	126	0.036924942305777
188	129	127	-0.043956560944208
188	130	128	0.027464257108514
188	131	129	-0.0031178809050481
188	132	130	-0.0059115382819428
188	133	131	0.0596780702658
188	134	132	-2.4476861943665
188	316	133	-3.08
188	317	134	2.0959686288238
188	3426	135	1.8938802249054
188	3427	136	2.0227796310768
189	115	114	4.4149046653037
189	116	115	5.4307702184807
189	117	116	6.4471687152879
189	118	117	7.4682280395223
189	119	118	2.5734490252549
189	120	119	1.6156030952469
189	121	120	1.7859856522156
189	123	121	2.0927951388497
189	124	122	1.6239990191099
189	125	123	1.9987615240958
189	126	124	2.0763027223592
189	127	125	1.6536584830094
189	128	126	1.9747598093936
189	129	127	1.7335068385556
189	130	128	1.9453613479626
189	131	129	1.8552950844638
189	132	130	1.8465752680503
189	133	131	2.0452056734034
189	134	132	0.973
189	316	133	0.973
189	317	134	6.0435250476832
189	3426	135	6.6206695089799
189	3427	136	8.1136061922364
190	116	115	2414.8449117928
190	117	116	2411.7323093369
190	118	117	2406.8489543897
190	119	118	2401.6736787073
190	120	119	2395.1674958445
190	121	120	2387.4119033498
190	123	121	2378.4333362723
190	124	122	2369.2519650871
190	125	123	2360.0747312194
190	126	124	2350.9025926013
190	127	125	2341.8970074537
190	128	126	2334.9436089419
190	129	127	2335.3543645178
190	130	128	2345.3496909005
190	131	129	2355.0599946412
190	132	130	2365.975920129
190	133	131	2378.9164799636
190	134	132	2391.8818145862
190	316	133	2402.9554250889
190	317	134	2413.0353841543
190	3426	135	2421.7418211421
190	3427	136	2429.0815697178
191	116	115	1578.4623623062
191	117	116	1579.6052936828
191	118	117	1581.8704484915
191	119	118	1587.1122897835
191	120	119	1593.7021566965
191	121	120	1601.5575034423
191	123	121	1610.6515549552
191	124	122	1619.9510190906
191	125	123	1629.2462926935
191	126	124	1638.5364055103
191	127	125	1647.9660099139
191	128	126	1658.747220776
191	129	127	1671.3870079424
191	130	128	1679.7769585028
191	131	129	1688.5339536322
191	132	130	1694.7173013827
191	133	131	1696.5962016545
191	134	132	1698.0079409415
191	316	133	1699.0550247626
191	317	134	1700.0081522055
191	3426	135	1700.8314039633
191	3427	136	1701.808688445
192	117	116	4.2921992871535
192	118	117	6.3890385901157
192	119	118	8.2062167572414
192	120	119	10.069799506438
192	121	120	11.927390349197
192	123	121	12.998449799569
192	124	122	13.100698492496
192	125	123	13.044219694984
192	126	124	13.040998051829
192	127	125	13.104197455911
192	128	126	13.059030961256
192	129	127	13.056054138508
192	130	128	13.105240905694
192	131	129	13.105407843188
192	132	130	13.031762008766
192	133	131	13.111258231547
192	134	132	12.926308213494
192	316	133	9.9791240681215
192	317	134	10.297096617017
192	3426	135	6.8008817894182
192	3427	136	8.4514175470343
193	118	117	2.0968393029622
193	119	118	1.8171781671257
193	120	119	1.8635827491968
193	121	120	1.8575908427592
193	123	121	1.0710594503715
193	124	122	0.10224869292695
193	125	123	-0.056478797511662
193	126	124	-0.0032216431549763
193	127	125	0.063199404082262
193	128	126	-0.045166494655422
193	129	127	-0.0029768227483142
193	130	128	0.049186767186038
193	131	129	0.00016693749464913
193	132	130	-0.073645834422203
193	133	131	0.079496222781017
193	134	132	-0.18495001805347
193	316	133	-2.9471841453722
193	317	134	0.31797254889517
193	3426	135	-3.4962148275985
193	3427	136	1.6505357576162
194	118	117	4.6709252960266
194	119	118	5.1507486498894
194	120	119	6.2126769618753
194	121	120	7.1817747034554
194	123	121	5.2951581330384
194	124	122	2.2725136063109
194	125	123	1.7667377238182
194	126	124	1.9338551564235
194	127	125	2.1496130768417
194	128	126	1.8035522187455
194	129	127	1.9360505445216
194	130	128	2.105471972606
194	131	129	1.9506655590722
194	132	130	1.7118037126666
194	133	131	2.2018923378261
194	134	132	1.3569258541834
194	316	133	0.973
194	317	134	2.4966722655359
194	3426	135	0.973
194	3427	136	4.9352587533286
195	119	118	2414.8421889067
195	120	119	2411.8412578211
195	121	120	2407.2366500119
195	123	121	2402.4211110438
195	124	122	2396.1711624342
195	125	123	2388.5172655507
195	126	124	2380.3446820602
195	127	125	2372.1786240462
195	128	126	2364.0029046416
195	129	127	2355.8361087854
195	130	128	2347.6843740067
195	131	129	2339.9625909684
195	132	130	2334.6668089847
195	133	131	2335.5093247773
195	134	132	2344.3975986965
195	316	133	2353.0587686084
195	317	134	2361.8679401967
195	3426	135	2373.3615957847
195	3427	136	2384.8783052496
196	119	118	1578.463362135
196	120	119	1579.5652883686
196	121	120	1581.4777662372
196	123	121	1586.3552437974
196	124	122	1592.6855807118
196	125	123	1600.4379238132
196	126	124	1608.7156249899
196	127	125	1616.9867167575
196	128	126	1625.2675941838
196	129	127	1633.5394332837
196	130	128	1641.7960175881
196	131	129	1650.4423640911
196	132	130	1660.4142175335
196	133	131	1671.5538882222
196	134	132	1678.9958614903
196	316	133	1686.72919787
196	317	134	1694.1032881225
196	3426	135	1695.8212266378
196	3427	136	1697.3057919107
197	120	119	4.099163855175
197	121	120	5.8564154620892
197	123	121	7.7936893133242
197	124	122	9.7622672545495
197	125	123	11.652818312387
197	126	124	11.633918032149
197	127	125	11.555939600587
197	128	126	11.572145621903
197	129	127	11.649701984381
197	130	128	11.630712793212
197	131	129	11.600356456263
197	132	130	11.655971777454
197	133	131	11.62142197209
197	134	132	11.570913617898
197	316	133	11.642839388278
197	317	134	11.56057646975
197	3426	135	11.594562031893
197	3427	136	11.621860965396
198	121	120	1.7572516069142
198	123	121	1.9372738512349
198	124	122	1.9685779412254
198	125	123	1.8905510578377
198	126	124	-0.018900280238595
198	127	125	-0.077978431561496
198	128	126	0.016206021315885
198	129	127	0.077556362478061
198	130	128	-0.018989191169384
198	131	129	-0.030356336948463
198	132	130	0.055615321190563
198	133	131	-0.034549805363641
198	134	132	-0.050508354192134
198	316	133	0.071925770379602
198	317	134	-0.082262918527704
198	3426	135	0.033985562142917
198	3427	136	0.027298933502752
199	121	120	3.8912469078023
199	123	121	5.168440869592
199	124	122	6.2983635323085
199	125	123	7.1275942011634
199	126	124	1.7636904676849
199	127	125	1.5928470200576
199	128	126	1.8565946533158
199	129	127	2.0357824135269
199	130	128	1.763181034138
199	131	129	1.7289415295627
199	132	130	1.9748036603367
199	133	131	1.7188457480012
199	134	132	1.6704456390899
199	316	133	2.0192661151328
199	317	134	1.5812182319336
199	3426	135	1.9082782994619
199	3427	136	1.8921098856232
200	123	121	2414.8587667713
200	124	122	2411.9356476427
200	125	123	2407.3229182976
200	126	124	2402.4784541581
200	127	125	2396.261341464
200	128	126	2388.6892881746
200	129	127	2380.1052247776
200	130	128	2371.4705308621
200	131	129	2362.8369877451
200	132	130	2354.2115901944
200	133	131	2345.5864398344
200	134	132	2337.7150731951
200	316	133	2333.9824690933
200	317	134	2339.2355641905
200	3426	135	2348.656755153
200	3427	136	2357.7701254756
201	123	121	1578.45727483
201	124	122	1579.5306289187
201	125	123	1581.3903883481
201	126	124	1586.2971631223
201	127	125	1592.5942417784
201	128	126	1600.2636885941
201	129	127	1608.9581622276
201	130	128	1617.7039176021
201	131	129	1626.4485073769
201	132	130	1635.1848468138
201	133	131	1643.9209358813
201	134	132	1653.3195366496
201	316	133	1664.678354512
201	317	134	1674.8272081958
201	3426	135	1682.7593518784
201	3427	136	1690.9780174997
202	124	122	3.9084870939956
202	125	123	5.874779334117
202	126	124	7.749979970462
202	127	125	9.7091771264302
202	128	126	11.708101021959
202	129	127	12.274391028838
202	130	128	12.307808207281
202	131	129	12.308748868535
202	132	130	12.241907001616
202	133	131	12.243169415198
202	134	132	12.250760608947
202	316	133	12.307411877365
202	317	134	12.258549885189
202	3426	135	12.282287218318
202	3427	136	12.244854954549
203	125	123	1.9662922401214
203	126	124	1.875200636345
203	127	125	1.9591971559683
203	128	126	1.998923895529
203	129	127	0.5662900068783
203	130	128	0.033417178443633
203	131	129	0.00094066125340753
203	132	130	-0.066841866918839
203	133	131	0.0012624135822978
203	134	132	0.0075911937491036
203	316	133	0.056651268417482
203	317	134	-0.048861992175226
203	3426	135	0.02373733312823
203	3427	136	-0.037432263768279
204	125	123	4.1960492258214
204	126	124	5.0292565623112
204	127	125	6.2472702646947
204	128	126	7.4633298515258
204	129	127	3.5481083937277
204	130	128	1.9750824933818
204	131	129	1.8788363237823
204	132	130	1.6728266331179
204	133	131	1.8738683837751
204	134	132	1.8932377386483
204	316	133	2.0439578597693
204	317	134	1.7271716877057
204	3426	135	1.9439239992465
204	3427	136	1.7598318548831
205	126	124	2414.8563562874
205	127	125	2411.8709679041
205	128	126	2407.1818897024
205	129	127	2402.2312804888
205	130	128	2396.0103943149
205	131	129	2388.4985765318
205	132	130	2379.6307286884
205	133	131	2369.8595297664
205	134	132	2360.0804125357
205	316	133	2350.3101462112
205	317	134	2340.8284313077
205	3426	135	2334.5169715756
205	3427	136	2337.8942056543
206	126	124	1578.4581599468
206	127	125	1579.5543789808
206	128	126	1581.5332308868
206	129	127	1586.5475159977
206	130	128	1592.8484166684
206	131	129	1600.4568532147
206	132	130	1609.4387613973
206	133	131	1619.335639772
206	134	132	1629.2405383028
206	316	133	1639.1364720855
206	317	134	1649.3339536963
206	3426	135	1661.3165965574
206	3427	136	1673.7439805111
207	127	125	4.076561782019
207	128	126	6.0300077411707
207	129	127	7.8709276547691
207	130	128	9.5823817496689
207	131	129	11.552415186971
207	132	130	13.489580010598
207	133	131	13.945355199496
207	134	132	13.907006167264
207	316	133	13.871612211748
207	317	134	13.951321379601
207	3426	135	13.892443370023
207	3427	136	13.976141884367
208	128	126	1.9534459591517
208	129	127	1.8409199135983
208	130	128	1.7114540948998
208	131	129	1.9700334373023
208	132	130	1.9371648236271
208	133	131	0.45577518889811
208	134	132	-0.038349032232073
208	316	133	-0.035393955516628
208	317	134	0.079709167852998
208	3426	135	-0.058878009577748
208	3427	136	0.083698514343705
209	128	126	4.2599522117348
209	129	127	5.0267680881708
209	130	128	5.605889218242
209	131	129	7.2945483450565
209	132	130	8.2851992498627
209	133	131	3.5650381160978
209	134	132	1.9008136162889
209	316	133	1.9074200449959
209	317	134	2.3018680303928
209	3426	135	1.8307333206411
209	3427	136	2.3183205318695
210	129	127	2414.8836791968
210	130	128	2411.9936076934
210	131	129	2407.3079390592
210	132	130	2402.2657910006
210	133	131	2395.820086294
210	134	132	2387.9772149422
210	316	133	2379.1957200202
210	317	134	2370.3831985454
210	3426	135	2361.5565889121
210	3427	136	2352.7425568126
211	129	127	1578.4481271179
211	130	128	1579.5093462905
211	131	129	1581.4055602532
211	132	130	1586.5125616034
211	133	131	1593.0411724756
211	134	132	1600.9849206787
211	316	133	1609.8793652486
211	317	134	1618.8052354427
211	3426	135	1627.7453749999
211	3427	136	1636.6727752481
212	130	128	3.9824005470828
212	131	129	6.0836882796402
212	132	130	7.9552716536967
212	133	131	10.100705959763
212	134	132	11.975236348899
212	316	133	12.585008563524
212	317	134	12.579582694048
212	3426	135	12.549659891423
212	3427	136	12.505895157306
213	131	129	2.1012877325574
213	132	130	1.8715833740565
213	133	131	2.145434306066
213	134	132	1.8745303891366
213	316	133	0.60977221462432
213	317	134	-0.0054258694755838
213	3426	135	-0.029922802625224
213	3427	136	-0.043764734116849
214	131	129	4.5051202836859
214	132	130	5.1285093364908
214	133	131	6.9150227279757
214	134	132	7.2562844975478
214	316	133	3.7506657344486
214	317	134	1.8842851966478
214	3426	135	1.8074814899672
214	3427	136	1.7620638389122
215	132	130	2414.8720430041
215	133	131	2412.0316223054
215	134	132	2407.553123147
215	316	133	2402.9272228047
215	317	134	2396.966894972
215	3426	135	2389.6715151991
215	3427	136	2381.0820835447
216	132	130	1578.4523998667
216	133	131	1579.4953875234
216	134	132	1581.1572225504
216	316	133	1585.8426223081
216	317	134	1591.8796132756
216	3426	135	1599.2688279347
216	3427	136	1607.9687388744
217	133	131	3.8414571175372
217	134	132	5.5578511554349
217	316	133	7.4139909626192
217	317	134	9.3204866696705
217	3426	135	11.237977716007
217	3427	136	12.846164658443
218	134	132	1.7163940378977
218	316	133	1.8561398071842
218	317	134	1.9064957070514
218	3426	135	1.9174910463369
218	3427	136	1.6081869424355
219	134	132	3.6929808668935
219	316	133	4.8217960970344
219	317	134	5.916859759892
219	3426	135	6.9764723776048
219	3427	136	6.9043625184088
220	316	133	2414.8835599658
220	317	134	2412.0155197452
220	3426	135	2407.3564201684
220	3427	136	2402.3161576297
221	316	133	1578.4481708985
221	317	134	1579.5013002995
221	3426	135	1581.3564555692
221	3427	136	1586.4615471466
222	317	134	4.0076643208797
222	3426	135	5.9565067090104
222	3427	136	8.0938856706662
223	3426	135	1.9488423881307
223	3427	136	2.1373789616558
224	3426	135	4.2144634856684
224	3427	136	5.718659805645
225	3427	136	2414.8606275192
226	3427	136	1578.4565915735

