version 2
run RSUMessageSending-0-20240705-18:26:20-6370
attr configname RSUMessageSending
attr datetime 20240705-18:26:20
attr experiment RSUMessageSending
attr inifile omnetpp.ini
attr iterationvars ""
attr iterationvarsf ""
attr measurement ""
attr network ddossimo.simulations.RSUmessage.RSUExampleScenario
attr processid 6370
attr repetition 0
attr replication #0
attr resultdir results
attr runnumber 0
attr seedset 0
param *.rsu.applType "\"RSUMessage\""
param *.rsu.appl.messageContent "\"This is a message from RSU.\""
param *.rsu.appl.messageInterval 1s
param *.car[*].numAttackPackets 1000
param *.car[*].attackInterval 0.1s
param *.car[*].numAttackPackets 1000
param *.car[*].attackInterval 0.1s
param **.car[*].pdrSignal.statistics true
param **.car[*].delaySignal.statistics true
param **.car[*].throughputSignal.statistics true
param **.car[*].collisionRateSignal.statistics true
param *.playgroundSizeX 2500m
param *.playgroundSizeY 2500m
param *.playgroundSizeZ 50m
param *.annotations.draw true
param *.obstacles.obstacles "xmldoc(\"config.xml\", \"//AnalogueModel[@type='SimpleObstacleShadowing']/obstacles\")"
param *.manager.updateInterval 1s
param *.manager.host "\"localhost\""
param *.manager.port 9999
param *.manager.autoShutdown true
param *.manager.launchConfig "xmldoc(\"erlangen.launchd.xml\")"
param *.rsu[0].mobility.x 2000
param *.rsu[0].mobility.y 2000
param *.rsu[0].mobility.z 3
param *.rsu[*].applType "\"TraCIDemoRSU11p\""
param *.rsu[*].appl.headerLength "80 bit"
param *.rsu[*].appl.sendBeacons false
param *.rsu[*].appl.dataOnSch false
param *.rsu[*].appl.beaconInterval 1s
param *.rsu[*].appl.beaconUserPriority 7
param *.rsu[*].appl.dataUserPriority 5
param *.rsu[*].nic.phy80211p.antennaOffsetZ "0 m"
param *.connectionManager.sendDirect true
param *.connectionManager.maxInterfDist 2600m
param *.connectionManager.drawMaxIntfDist false
param *.**.nic.mac1609_4.useServiceChannel false
param *.**.nic.mac1609_4.txPower 20mW
param *.**.nic.mac1609_4.bitrate 6Mbps
param *.**.nic.phy80211p.minPowerLevel -110dBm
param *.**.nic.phy80211p.useNoiseFloor true
param *.**.nic.phy80211p.noiseFloor -98dBm
param *.**.nic.phy80211p.decider "xmldoc(\"config.xml\")"
param *.**.nic.phy80211p.analogueModels "xmldoc(\"config.xml\")"
param *.**.nic.phy80211p.usePropagationDelay true
param *.**.nic.phy80211p.antenna "xmldoc(\"antenna.xml\", \"/root/Antenna[@id='monopole']\")"
param *.node[*].nic.phy80211p.antennaOffsetY "0 m"
param *.node[*].nic.phy80211p.antennaOffsetZ "1.895 m"
param *.node[*].applType "\"TraCIDemo11p\""
param *.node[*].appl.headerLength "80 bit"
param *.node[*].appl.sendBeacons false
param *.node[*].appl.dataOnSch false
param *.node[*].appl.beaconInterval 1s
param *.node[*].veinsmobility.x 0
param *.node[*].veinsmobility.y 0
param *.node[*].veinsmobility.z 0
param *.node[*].veinsmobility.setHostSpeed false
param *.node[*0].veinsmobility.accidentCount 1
param *.node[*0].veinsmobility.accidentStart 120s
param *.node[*0].veinsmobility.accidentDuration 50s
param *.numCars 20

vector 0 RSUExampleScenario.node[0].veinsmobility posx ETV
vector 1 RSUExampleScenario.node[0].veinsmobility posy ETV
vector 2 RSUExampleScenario.node[0].veinsmobility speed ETV
vector 3 RSUExampleScenario.node[0].veinsmobility acceleration ETV
vector 4 RSUExampleScenario.node[0].veinsmobility co2emission ETV
vector 5 RSUExampleScenario.node[1].veinsmobility posx ETV
vector 6 RSUExampleScenario.node[1].veinsmobility posy ETV
vector 7 RSUExampleScenario.node[1].veinsmobility speed ETV
vector 8 RSUExampleScenario.node[1].veinsmobility acceleration ETV
vector 9 RSUExampleScenario.node[1].veinsmobility co2emission ETV
vector 10 RSUExampleScenario.node[2].veinsmobility posx ETV
vector 11 RSUExampleScenario.node[2].veinsmobility posy ETV
vector 12 RSUExampleScenario.node[2].veinsmobility speed ETV
vector 13 RSUExampleScenario.node[2].veinsmobility acceleration ETV
vector 14 RSUExampleScenario.node[2].veinsmobility co2emission ETV
vector 15 RSUExampleScenario.node[3].veinsmobility posx ETV
vector 16 RSUExampleScenario.node[3].veinsmobility posy ETV
vector 17 RSUExampleScenario.node[3].veinsmobility speed ETV
vector 18 RSUExampleScenario.node[3].veinsmobility acceleration ETV
vector 19 RSUExampleScenario.node[3].veinsmobility co2emission ETV
vector 20 RSUExampleScenario.node[4].veinsmobility posx ETV
vector 21 RSUExampleScenario.node[4].veinsmobility posy ETV
vector 22 RSUExampleScenario.node[4].veinsmobility speed ETV
vector 23 RSUExampleScenario.node[4].veinsmobility acceleration ETV
vector 24 RSUExampleScenario.node[4].veinsmobility co2emission ETV
vector 25 RSUExampleScenario.node[5].veinsmobility posx ETV
vector 26 RSUExampleScenario.node[5].veinsmobility posy ETV
vector 27 RSUExampleScenario.node[5].veinsmobility speed ETV
vector 28 RSUExampleScenario.node[5].veinsmobility acceleration ETV
vector 29 RSUExampleScenario.node[5].veinsmobility co2emission ETV
vector 30 RSUExampleScenario.node[6].veinsmobility posx ETV
vector 31 RSUExampleScenario.node[6].veinsmobility posy ETV
vector 32 RSUExampleScenario.node[6].veinsmobility speed ETV
vector 33 RSUExampleScenario.node[6].veinsmobility acceleration ETV
vector 34 RSUExampleScenario.node[6].veinsmobility co2emission ETV
vector 35 RSUExampleScenario.node[7].veinsmobility posx ETV
vector 36 RSUExampleScenario.node[7].veinsmobility posy ETV
vector 37 RSUExampleScenario.node[7].veinsmobility speed ETV
vector 38 RSUExampleScenario.node[7].veinsmobility acceleration ETV
vector 39 RSUExampleScenario.node[7].veinsmobility co2emission ETV
vector 40 RSUExampleScenario.node[8].veinsmobility posx ETV
vector 41 RSUExampleScenario.node[8].veinsmobility posy ETV
vector 42 RSUExampleScenario.node[8].veinsmobility speed ETV
vector 43 RSUExampleScenario.node[8].veinsmobility acceleration ETV
vector 44 RSUExampleScenario.node[8].veinsmobility co2emission ETV
vector 45 RSUExampleScenario.node[9].veinsmobility posx ETV
vector 46 RSUExampleScenario.node[9].veinsmobility posy ETV
vector 47 RSUExampleScenario.node[9].veinsmobility speed ETV
vector 48 RSUExampleScenario.node[9].veinsmobility acceleration ETV
vector 49 RSUExampleScenario.node[9].veinsmobility co2emission ETV
vector 50 RSUExampleScenario.node[10].veinsmobility posx ETV
vector 51 RSUExampleScenario.node[10].veinsmobility posy ETV
vector 52 RSUExampleScenario.node[10].veinsmobility speed ETV
vector 53 RSUExampleScenario.node[10].veinsmobility acceleration ETV
vector 54 RSUExampleScenario.node[10].veinsmobility co2emission ETV
vector 55 RSUExampleScenario.node[11].veinsmobility posx ETV
vector 56 RSUExampleScenario.node[11].veinsmobility posy ETV
vector 57 RSUExampleScenario.node[11].veinsmobility speed ETV
vector 58 RSUExampleScenario.node[11].veinsmobility acceleration ETV
vector 59 RSUExampleScenario.node[11].veinsmobility co2emission ETV
vector 60 RSUExampleScenario.node[12].veinsmobility posx ETV
vector 61 RSUExampleScenario.node[12].veinsmobility posy ETV
vector 62 RSUExampleScenario.node[12].veinsmobility speed ETV
vector 63 RSUExampleScenario.node[12].veinsmobility acceleration ETV
vector 64 RSUExampleScenario.node[12].veinsmobility co2emission ETV
vector 65 RSUExampleScenario.node[13].veinsmobility posx ETV
vector 66 RSUExampleScenario.node[13].veinsmobility posy ETV
vector 67 RSUExampleScenario.node[13].veinsmobility speed ETV
vector 68 RSUExampleScenario.node[13].veinsmobility acceleration ETV
vector 69 RSUExampleScenario.node[13].veinsmobility co2emission ETV
vector 70 RSUExampleScenario.node[14].veinsmobility posx ETV
vector 71 RSUExampleScenario.node[14].veinsmobility posy ETV
vector 72 RSUExampleScenario.node[14].veinsmobility speed ETV
vector 73 RSUExampleScenario.node[14].veinsmobility acceleration ETV
vector 74 RSUExampleScenario.node[14].veinsmobility co2emission ETV
vector 75 RSUExampleScenario.node[15].veinsmobility posx ETV
vector 76 RSUExampleScenario.node[15].veinsmobility posy ETV
vector 77 RSUExampleScenario.node[15].veinsmobility speed ETV
vector 78 RSUExampleScenario.node[15].veinsmobility acceleration ETV
vector 79 RSUExampleScenario.node[15].veinsmobility co2emission ETV
vector 80 RSUExampleScenario.node[16].veinsmobility posx ETV
vector 81 RSUExampleScenario.node[16].veinsmobility posy ETV
vector 82 RSUExampleScenario.node[16].veinsmobility speed ETV
vector 83 RSUExampleScenario.node[16].veinsmobility acceleration ETV
vector 84 RSUExampleScenario.node[16].veinsmobility co2emission ETV
vector 85 RSUExampleScenario.node[17].veinsmobility posx ETV
vector 86 RSUExampleScenario.node[17].veinsmobility posy ETV
vector 87 RSUExampleScenario.node[17].veinsmobility speed ETV
vector 88 RSUExampleScenario.node[17].veinsmobility acceleration ETV
vector 89 RSUExampleScenario.node[17].veinsmobility co2emission ETV
vector 90 RSUExampleScenario.node[18].veinsmobility posx ETV
vector 91 RSUExampleScenario.node[18].veinsmobility posy ETV
vector 92 RSUExampleScenario.node[18].veinsmobility speed ETV
vector 93 RSUExampleScenario.node[18].veinsmobility acceleration ETV
vector 94 RSUExampleScenario.node[18].veinsmobility co2emission ETV
vector 95 RSUExampleScenario.node[19].veinsmobility posx ETV
vector 96 RSUExampleScenario.node[19].veinsmobility posy ETV
vector 97 RSUExampleScenario.node[19].veinsmobility speed ETV
vector 98 RSUExampleScenario.node[19].veinsmobility acceleration ETV
vector 99 RSUExampleScenario.node[19].veinsmobility co2emission ETV
vector 100 RSUExampleScenario.node[20].veinsmobility posx ETV
vector 101 RSUExampleScenario.node[20].veinsmobility posy ETV
vector 102 RSUExampleScenario.node[20].veinsmobility speed ETV
vector 103 RSUExampleScenario.node[20].veinsmobility acceleration ETV
vector 104 RSUExampleScenario.node[20].veinsmobility co2emission ETV
vector 105 RSUExampleScenario.node[21].veinsmobility posx ETV
vector 106 RSUExampleScenario.node[21].veinsmobility posy ETV
vector 107 RSUExampleScenario.node[21].veinsmobility speed ETV
vector 108 RSUExampleScenario.node[21].veinsmobility acceleration ETV
vector 109 RSUExampleScenario.node[21].veinsmobility co2emission ETV
vector 110 RSUExampleScenario.node[22].veinsmobility posx ETV
vector 111 RSUExampleScenario.node[22].veinsmobility posy ETV
vector 112 RSUExampleScenario.node[22].veinsmobility speed ETV
vector 113 RSUExampleScenario.node[22].veinsmobility acceleration ETV
vector 114 RSUExampleScenario.node[22].veinsmobility co2emission ETV
vector 115 RSUExampleScenario.node[23].veinsmobility posx ETV
vector 116 RSUExampleScenario.node[23].veinsmobility posy ETV
vector 117 RSUExampleScenario.node[23].veinsmobility speed ETV
vector 118 RSUExampleScenario.node[23].veinsmobility acceleration ETV
vector 119 RSUExampleScenario.node[23].veinsmobility co2emission ETV
vector 120 RSUExampleScenario.node[24].veinsmobility posx ETV
vector 121 RSUExampleScenario.node[24].veinsmobility posy ETV
vector 122 RSUExampleScenario.node[24].veinsmobility speed ETV
vector 123 RSUExampleScenario.node[24].veinsmobility acceleration ETV
vector 124 RSUExampleScenario.node[24].veinsmobility co2emission ETV
vector 125 RSUExampleScenario.node[25].veinsmobility posx ETV
vector 126 RSUExampleScenario.node[25].veinsmobility posy ETV
vector 127 RSUExampleScenario.node[25].veinsmobility speed ETV
vector 128 RSUExampleScenario.node[25].veinsmobility acceleration ETV
vector 129 RSUExampleScenario.node[25].veinsmobility co2emission ETV
vector 130 RSUExampleScenario.node[26].veinsmobility posx ETV
vector 131 RSUExampleScenario.node[26].veinsmobility posy ETV
vector 132 RSUExampleScenario.node[26].veinsmobility speed ETV
vector 133 RSUExampleScenario.node[26].veinsmobility acceleration ETV
vector 134 RSUExampleScenario.node[26].veinsmobility co2emission ETV
vector 135 RSUExampleScenario.node[27].veinsmobility posx ETV
vector 136 RSUExampleScenario.node[27].veinsmobility posy ETV
vector 137 RSUExampleScenario.node[27].veinsmobility speed ETV
vector 138 RSUExampleScenario.node[27].veinsmobility acceleration ETV
vector 139 RSUExampleScenario.node[27].veinsmobility co2emission ETV
vector 140 RSUExampleScenario.node[28].veinsmobility posx ETV
vector 141 RSUExampleScenario.node[28].veinsmobility posy ETV
vector 142 RSUExampleScenario.node[28].veinsmobility speed ETV
vector 143 RSUExampleScenario.node[28].veinsmobility acceleration ETV
vector 144 RSUExampleScenario.node[28].veinsmobility co2emission ETV
vector 145 RSUExampleScenario.node[29].veinsmobility posx ETV
vector 146 RSUExampleScenario.node[29].veinsmobility posy ETV
vector 147 RSUExampleScenario.node[29].veinsmobility speed ETV
vector 148 RSUExampleScenario.node[29].veinsmobility acceleration ETV
vector 149 RSUExampleScenario.node[29].veinsmobility co2emission ETV
vector 150 RSUExampleScenario.node[30].veinsmobility posx ETV
vector 151 RSUExampleScenario.node[30].veinsmobility posy ETV
vector 152 RSUExampleScenario.node[30].veinsmobility speed ETV
vector 153 RSUExampleScenario.node[30].veinsmobility acceleration ETV
vector 154 RSUExampleScenario.node[30].veinsmobility co2emission ETV
vector 155 RSUExampleScenario.node[31].veinsmobility posx ETV
vector 156 RSUExampleScenario.node[31].veinsmobility posy ETV
vector 157 RSUExampleScenario.node[31].veinsmobility speed ETV
vector 158 RSUExampleScenario.node[31].veinsmobility acceleration ETV
vector 159 RSUExampleScenario.node[31].veinsmobility co2emission ETV
vector 160 RSUExampleScenario.node[32].veinsmobility posx ETV
vector 161 RSUExampleScenario.node[32].veinsmobility posy ETV
vector 162 RSUExampleScenario.node[32].veinsmobility speed ETV
vector 163 RSUExampleScenario.node[32].veinsmobility acceleration ETV
vector 164 RSUExampleScenario.node[32].veinsmobility co2emission ETV
vector 165 RSUExampleScenario.node[33].veinsmobility posx ETV
vector 166 RSUExampleScenario.node[33].veinsmobility posy ETV
vector 167 RSUExampleScenario.node[33].veinsmobility speed ETV
vector 168 RSUExampleScenario.node[33].veinsmobility acceleration ETV
vector 169 RSUExampleScenario.node[33].veinsmobility co2emission ETV
vector 170 RSUExampleScenario.node[34].veinsmobility posx ETV
vector 171 RSUExampleScenario.node[34].veinsmobility posy ETV
vector 172 RSUExampleScenario.node[34].veinsmobility speed ETV
vector 173 RSUExampleScenario.node[34].veinsmobility acceleration ETV
vector 174 RSUExampleScenario.node[34].veinsmobility co2emission ETV
vector 175 RSUExampleScenario.node[35].veinsmobility posx ETV
vector 176 RSUExampleScenario.node[35].veinsmobility posy ETV
vector 177 RSUExampleScenario.node[35].veinsmobility speed ETV
vector 178 RSUExampleScenario.node[35].veinsmobility acceleration ETV
vector 179 RSUExampleScenario.node[35].veinsmobility co2emission ETV
vector 180 RSUExampleScenario.node[36].veinsmobility posx ETV
vector 181 RSUExampleScenario.node[36].veinsmobility posy ETV
vector 182 RSUExampleScenario.node[36].veinsmobility speed ETV
vector 183 RSUExampleScenario.node[36].veinsmobility acceleration ETV
vector 184 RSUExampleScenario.node[36].veinsmobility co2emission ETV
vector 185 RSUExampleScenario.node[37].veinsmobility posx ETV
vector 186 RSUExampleScenario.node[37].veinsmobility posy ETV
vector 187 RSUExampleScenario.node[37].veinsmobility speed ETV
vector 188 RSUExampleScenario.node[37].veinsmobility acceleration ETV
vector 189 RSUExampleScenario.node[37].veinsmobility co2emission ETV
vector 190 RSUExampleScenario.node[38].veinsmobility posx ETV
vector 191 RSUExampleScenario.node[38].veinsmobility posy ETV
vector 192 RSUExampleScenario.node[38].veinsmobility speed ETV
vector 193 RSUExampleScenario.node[38].veinsmobility acceleration ETV
vector 194 RSUExampleScenario.node[38].veinsmobility co2emission ETV
vector 195 RSUExampleScenario.node[39].veinsmobility posx ETV
vector 196 RSUExampleScenario.node[39].veinsmobility posy ETV
vector 197 RSUExampleScenario.node[39].veinsmobility speed ETV
vector 198 RSUExampleScenario.node[39].veinsmobility acceleration ETV
vector 199 RSUExampleScenario.node[39].veinsmobility co2emission ETV
vector 200 RSUExampleScenario.node[40].veinsmobility posx ETV
vector 201 RSUExampleScenario.node[40].veinsmobility posy ETV
vector 202 RSUExampleScenario.node[40].veinsmobility speed ETV
vector 203 RSUExampleScenario.node[40].veinsmobility acceleration ETV
vector 204 RSUExampleScenario.node[40].veinsmobility co2emission ETV
vector 205 RSUExampleScenario.node[41].veinsmobility posx ETV
vector 206 RSUExampleScenario.node[41].veinsmobility posy ETV
vector 207 RSUExampleScenario.node[41].veinsmobility speed ETV
vector 208 RSUExampleScenario.node[41].veinsmobility acceleration ETV
vector 209 RSUExampleScenario.node[41].veinsmobility co2emission ETV
vector 210 RSUExampleScenario.node[42].veinsmobility posx ETV
vector 211 RSUExampleScenario.node[42].veinsmobility posy ETV
vector 212 RSUExampleScenario.node[42].veinsmobility speed ETV
vector 213 RSUExampleScenario.node[42].veinsmobility acceleration ETV
vector 214 RSUExampleScenario.node[42].veinsmobility co2emission ETV
vector 215 RSUExampleScenario.node[43].veinsmobility posx ETV
vector 216 RSUExampleScenario.node[43].veinsmobility posy ETV
vector 217 RSUExampleScenario.node[43].veinsmobility speed ETV
vector 218 RSUExampleScenario.node[43].veinsmobility acceleration ETV
vector 219 RSUExampleScenario.node[43].veinsmobility co2emission ETV
vector 220 RSUExampleScenario.node[44].veinsmobility posx ETV
vector 221 RSUExampleScenario.node[44].veinsmobility posy ETV
vector 222 RSUExampleScenario.node[44].veinsmobility speed ETV
vector 223 RSUExampleScenario.node[44].veinsmobility acceleration ETV
vector 224 RSUExampleScenario.node[44].veinsmobility co2emission ETV
vector 225 RSUExampleScenario.node[45].veinsmobility posx ETV
vector 226 RSUExampleScenario.node[45].veinsmobility posy ETV
vector 227 RSUExampleScenario.node[45].veinsmobility speed ETV
vector 228 RSUExampleScenario.node[45].veinsmobility acceleration ETV
vector 229 RSUExampleScenario.node[45].veinsmobility co2emission ETV
vector 230 RSUExampleScenario.node[46].veinsmobility posx ETV
vector 231 RSUExampleScenario.node[46].veinsmobility posy ETV
vector 232 RSUExampleScenario.node[46].veinsmobility speed ETV
vector 233 RSUExampleScenario.node[46].veinsmobility acceleration ETV
vector 234 RSUExampleScenario.node[46].veinsmobility co2emission ETV
vector 235 RSUExampleScenario.node[47].veinsmobility posx ETV
vector 236 RSUExampleScenario.node[47].veinsmobility posy ETV
vector 237 RSUExampleScenario.node[47].veinsmobility speed ETV
vector 238 RSUExampleScenario.node[47].veinsmobility acceleration ETV
vector 239 RSUExampleScenario.node[47].veinsmobility co2emission ETV
vector 240 RSUExampleScenario.node[48].veinsmobility posx ETV
vector 241 RSUExampleScenario.node[48].veinsmobility posy ETV
vector 242 RSUExampleScenario.node[48].veinsmobility speed ETV
vector 243 RSUExampleScenario.node[48].veinsmobility acceleration ETV
vector 244 RSUExampleScenario.node[48].veinsmobility co2emission ETV
vector 245 RSUExampleScenario.node[49].veinsmobility posx ETV
vector 246 RSUExampleScenario.node[49].veinsmobility posy ETV
vector 247 RSUExampleScenario.node[49].veinsmobility speed ETV
vector 248 RSUExampleScenario.node[49].veinsmobility acceleration ETV
vector 249 RSUExampleScenario.node[49].veinsmobility co2emission ETV
vector 250 RSUExampleScenario.node[50].veinsmobility posx ETV
vector 251 RSUExampleScenario.node[50].veinsmobility posy ETV
vector 252 RSUExampleScenario.node[50].veinsmobility speed ETV
vector 253 RSUExampleScenario.node[50].veinsmobility acceleration ETV
vector 254 RSUExampleScenario.node[50].veinsmobility co2emission ETV
vector 255 RSUExampleScenario.node[51].veinsmobility posx ETV
vector 256 RSUExampleScenario.node[51].veinsmobility posy ETV
vector 257 RSUExampleScenario.node[51].veinsmobility speed ETV
vector 258 RSUExampleScenario.node[51].veinsmobility acceleration ETV
vector 259 RSUExampleScenario.node[51].veinsmobility co2emission ETV
vector 260 RSUExampleScenario.node[52].veinsmobility posx ETV
vector 261 RSUExampleScenario.node[52].veinsmobility posy ETV
vector 262 RSUExampleScenario.node[52].veinsmobility speed ETV
vector 263 RSUExampleScenario.node[52].veinsmobility acceleration ETV
vector 264 RSUExampleScenario.node[52].veinsmobility co2emission ETV
vector 265 RSUExampleScenario.node[53].veinsmobility posx ETV
vector 266 RSUExampleScenario.node[53].veinsmobility posy ETV
vector 267 RSUExampleScenario.node[53].veinsmobility speed ETV
vector 268 RSUExampleScenario.node[53].veinsmobility acceleration ETV
vector 269 RSUExampleScenario.node[53].veinsmobility co2emission ETV
vector 270 RSUExampleScenario.node[54].veinsmobility posx ETV
vector 271 RSUExampleScenario.node[54].veinsmobility posy ETV
vector 272 RSUExampleScenario.node[54].veinsmobility speed ETV
vector 273 RSUExampleScenario.node[54].veinsmobility acceleration ETV
vector 274 RSUExampleScenario.node[54].veinsmobility co2emission ETV
vector 275 RSUExampleScenario.node[55].veinsmobility posx ETV
vector 276 RSUExampleScenario.node[55].veinsmobility posy ETV
vector 277 RSUExampleScenario.node[55].veinsmobility speed ETV
vector 278 RSUExampleScenario.node[55].veinsmobility acceleration ETV
vector 279 RSUExampleScenario.node[55].veinsmobility co2emission ETV
vector 280 RSUExampleScenario.node[56].veinsmobility posx ETV
vector 281 RSUExampleScenario.node[56].veinsmobility posy ETV
vector 282 RSUExampleScenario.node[56].veinsmobility speed ETV
vector 283 RSUExampleScenario.node[56].veinsmobility acceleration ETV
vector 284 RSUExampleScenario.node[56].veinsmobility co2emission ETV
vector 285 RSUExampleScenario.node[57].veinsmobility posx ETV
vector 286 RSUExampleScenario.node[57].veinsmobility posy ETV
vector 287 RSUExampleScenario.node[57].veinsmobility speed ETV
vector 288 RSUExampleScenario.node[57].veinsmobility acceleration ETV
vector 289 RSUExampleScenario.node[57].veinsmobility co2emission ETV
vector 290 RSUExampleScenario.node[58].veinsmobility posx ETV
vector 291 RSUExampleScenario.node[58].veinsmobility posy ETV
vector 292 RSUExampleScenario.node[58].veinsmobility speed ETV
vector 293 RSUExampleScenario.node[58].veinsmobility acceleration ETV
vector 294 RSUExampleScenario.node[58].veinsmobility co2emission ETV
vector 295 RSUExampleScenario.node[59].veinsmobility posx ETV
vector 296 RSUExampleScenario.node[59].veinsmobility posy ETV
vector 297 RSUExampleScenario.node[59].veinsmobility speed ETV
vector 298 RSUExampleScenario.node[59].veinsmobility acceleration ETV
vector 299 RSUExampleScenario.node[59].veinsmobility co2emission ETV
vector 300 RSUExampleScenario.node[60].veinsmobility posx ETV
vector 301 RSUExampleScenario.node[60].veinsmobility posy ETV
vector 302 RSUExampleScenario.node[60].veinsmobility speed ETV
vector 303 RSUExampleScenario.node[60].veinsmobility acceleration ETV
vector 304 RSUExampleScenario.node[60].veinsmobility co2emission ETV
vector 305 RSUExampleScenario.node[61].veinsmobility posx ETV
vector 306 RSUExampleScenario.node[61].veinsmobility posy ETV
vector 307 RSUExampleScenario.node[61].veinsmobility speed ETV
vector 308 RSUExampleScenario.node[61].veinsmobility acceleration ETV
vector 309 RSUExampleScenario.node[61].veinsmobility co2emission ETV
vector 310 RSUExampleScenario.node[62].veinsmobility posx ETV
vector 311 RSUExampleScenario.node[62].veinsmobility posy ETV
vector 312 RSUExampleScenario.node[62].veinsmobility speed ETV
vector 313 RSUExampleScenario.node[62].veinsmobility acceleration ETV
vector 314 RSUExampleScenario.node[62].veinsmobility co2emission ETV
vector 315 RSUExampleScenario.node[63].veinsmobility posx ETV
vector 316 RSUExampleScenario.node[63].veinsmobility posy ETV
vector 317 RSUExampleScenario.node[63].veinsmobility speed ETV
vector 318 RSUExampleScenario.node[63].veinsmobility acceleration ETV
vector 319 RSUExampleScenario.node[63].veinsmobility co2emission ETV
vector 320 RSUExampleScenario.node[64].veinsmobility posx ETV
vector 321 RSUExampleScenario.node[64].veinsmobility posy ETV
vector 322 RSUExampleScenario.node[64].veinsmobility speed ETV
vector 323 RSUExampleScenario.node[64].veinsmobility acceleration ETV
vector 324 RSUExampleScenario.node[64].veinsmobility co2emission ETV
vector 325 RSUExampleScenario.node[65].veinsmobility posx ETV
vector 326 RSUExampleScenario.node[65].veinsmobility posy ETV
vector 327 RSUExampleScenario.node[65].veinsmobility speed ETV
vector 328 RSUExampleScenario.node[65].veinsmobility acceleration ETV
vector 329 RSUExampleScenario.node[65].veinsmobility co2emission ETV
vector 330 RSUExampleScenario.node[66].veinsmobility posx ETV
vector 331 RSUExampleScenario.node[66].veinsmobility posy ETV
vector 332 RSUExampleScenario.node[66].veinsmobility speed ETV
0	2	1	2414.8476884116
0	3	2	2411.8243290941
0	4	3	2407.1592244543
0	5	4	2402.288200066
0	6	5	2396.1394374635
0	7	6	2388.6993875942
0	8	7	2379.889221533
0	9	8	2370.1207192459
0	10	9	2360.3141803208
0	11	10	2350.5099475634
0	12	11	2341.0010868867
0	13	12	2334.5620136983
0	14	13	2337.6803779466
0	15	14	2348.3497968862
0	16	15	2358.6961674725
0	17	16	2371.6616533546
0	18	17	2385.4706804305
0	19	18	2399.3588350668
0	20	19	2412.4541998667
0	21	20	2421.4418196582
0	22	21	2428.417609864
0	23	22	2431.468930052
0	24	23	2433.1513403206
0	25	24	2435.1237040944
0	26	25	2437.2173147583
0	27	26	2438.6437980286
0	28	27	2439.5074353185
0	29	28	2440.517813261
0	30	29	2441.5286354903
0	31	30	2442.5392864447
0	32	31	2443.5505626462
0	33	32	2444.5611125134
0	34	33	2445.5724211388
0	35	34	2446.5834693939
0	36	35	2447.5934051003
0	37	36	2448.6036931522
0	38	37	2449.6148620235
0	39	38	2450.6248001783
0	40	39	2449.5880553933
0	41	40	2448.4757357414
0	42	41	2447.3635385588
0	43	42	2446.250303259
0	44	43	2445.1365203297
0	45	44	2444.0235521834
0	46	45	2442.9111769209
0	47	46	2441.7982721732
0	48	47	2440.6856421625
0	49	48	2439.7151308154
0	50	49	2438.7725309408
0	51	50	2437.9056889905
0	52	51	2432.8785054281
0	53	52	2422.5273191113
0	54	53	2409.439604845
0	55	54	2395.517893619
0	56	55	2381.592286239
0	57	56	2367.6659531716
0	58	57	2353.7601239877
0	59	58	2339.8337569573
0	60	59	2325.9069679289
0	61	60	2311.9542202253
0	62	61	2298.0325140053
0	63	62	2284.0857072632
0	64	63	2270.1754193477
0	65	64	2256.2378749268
0	66	65	2242.3725172955
0	67	66	2228.5568932705
0	68	67	2214.8035730832
0	69	68	2201.6130456962
0	70	69	2188.4247624045
0	71	70	2175.5107078577
0	72	71	2163.5018647154
0	73	72	2152.2359160049
0	74	73	2144.5614629743
0	75	74	2138.2558950796
0	76	75	2131.5955681979
0	77	76	2123.7056670481
0	78	77	2114.4870687368
0	79	78	2104.967243704
0	80	79	2095.4384303803
0	81	80	2085.9056783495
0	82	81	2076.3779145891
0	83	82	2066.8424239405
0	84	83	2057.3019868316
0	85	84	2047.7591241145
0	86	85	2037.7608240946
0	87	86	2027.7716043318
0	88	87	2017.7788433422
0	89	88	2007.7911366803
0	90	89	1997.8010467655
0	91	90	1987.8117551972
0	92	91	1977.8105066026
0	93	92	1967.8078011014
0	94	93	1957.8261436883
0	95	94	1947.8354978411
0	96	95	1937.8357170075
0	97	96	1928.0943876163
0	98	97	1918.3458898404
0	99	98	1908.595691517
0	100	99	1898.860628812
0	101	100	1889.1253430418
0	102	101	1879.3899734151
0	103	102	1869.6541828585
0	104	103	1859.9138401168
0	105	104	1850.1927032812
0	106	105	1840.4627611398
0	107	106	1830.4943832025
0	108	107	1820.3899234756
0	109	108	1810.2821070175
0	110	109	1800.3072354572
0	111	110	1790.3538284535
0	112	111	1780.4116429748
0	113	112	1770.4645217122
0	114	113	1760.5038479915
0	115	114	1750.5548786415
0	116	115	1740.6057387365
0	117	116	1730.6509342341
0	118	117	1720.6987788925
0	119	118	1710.7568396883
0	120	119	1700.8018530838
0	121	120	1690.8717264237
0	123	121	1682.7119834772
0	124	122	1677.7664839206
0	125	123	1676.035227754
0	126	124	1676.035227754
0	127	125	1676.035227754
0	128	126	1676.035227754
0	129	127	1676.035227754
0	130	128	1676.035227754
0	131	129	1676.035227754
0	132	130	1676.035227754
0	133	131	1676.035227754
0	134	132	1676.035227754
0	316	133	1676.035227754
0	317	134	1676.035227754
0	3426	135	1676.035227754
0	3427	136	1676.035227754
0	9473	137	1676.035227754
0	9474	138	1676.035227754
0	14850	139	1676.035227754
0	14851	140	1676.035227754
0	15313	141	1676.035227754
0	15314	142	1676.035227754
0	15315	143	1676.035227754
0	15316	144	1676.035227754
0	15317	145	1676.035227754
0	15318	146	1676.035227754
0	15319	147	1676.035227754
0	15320	148	1676.035227754
0	15321	149	1676.035227754
0	15322	150	1676.035227754
0	15324	151	1676.035227754
0	15325	152	1676.035227754
0	15326	153	1676.035227754
0	15327	154	1676.035227754
0	15328	155	1676.035227754
0	15329	156	1676.035227754
0	15330	157	1676.035227754
0	15331	158	1676.035227754
0	15332	159	1676.035227754
0	15333	160	1676.035227754
0	15334	161	1676.035227754
0	15335	162	1676.035227754
0	15336	163	1676.035227754
0	15337	164	1676.035227754
0	15338	165	1676.035227754
0	15339	166	1676.035227754
0	15340	167	1676.035227754
0	15341	168	1676.035227754
0	15342	169	1676.035227754
0	15343	170	1676.035227754
0	15345	171	1675.1291835021
0	15346	172	1672.8772053879
0	15347	173	1669.1715350469
0	15348	174	1664.0300403609
0	15349	175	1657.5824415023
0	15350	176	1649.748063431
0	15351	177	1640.5484358824
0	15352	178	1630.5910042753
0	15353	179	1620.6325361436
0	15354	180	1610.8427957598
0	15356	181	1601.0276866531
0	15357	182	1591.2110563378
0	15358	183	1581.4058309953
0	15359	184	1571.5807766512
0	15360	185	1561.7703905561
0	15361	186	1551.3250648684
0	15362	187	1540.7745943316
0	15363	188	1530.2204483799
0	15364	189	1519.6582103242
0	15365	190	1509.105258439
0	15366	191	1498.0487241163
0	15367	192	1486.6413544306
0	15368	193	1475.2415600999
0	15369	194	1463.825374504
0	15370	195	1452.4196896722
0	15371	196	1440.2276805512
0	15372	197	1427.6013281848
0	15373	198	1414.9808090047
0	15374	199	1402.3515861545
0	15375	200	1389.0739423211
1	2	1	1578.4613427464
1	3	2	1579.5715045081
1	4	3	1581.5561876604
1	5	4	1586.4898643075
1	6	5	1592.7177137369
1	7	6	1600.2534592729
1	8	7	1609.1769437566
1	9	8	1619.0710908128
1	10	9	1629.0037637418
1	11	10	1638.9341008412
1	12	11	1649.1129276818
1	13	12	1661.0453354148
1	14	13	1673.5713017788
1	15	14	1682.4825292248
1	16	15	1691.8131453674
1	17	16	1695.5671389326
1	18	17	1697.3762977775
1	19	18	1698.7149431584
1	20	19	1699.9531973498
1	21	20	1700.8030368192
1	22	21	1701.4822415169
1	23	22	1709.488976148
1	24	23	1720.5600911779
1	25	24	1733.5392477075
1	26	25	1747.3162704222
1	27	26	1761.1584832035
1	28	27	1775.0702432813
1	29	28	1788.9649324082
1	30	29	1802.8657313576
1	31	30	1816.7641749373
1	32	31	1830.6712168986
1	33	32	1844.5682703312
1	34	33	1858.4757581847
1	35	34	1872.3796654344
1	36	35	1886.2682729438
1	37	36	1900.1617258992
1	38	37	1914.0672918586
1	39	38	1927.95593304
1	40	39	1941.8192613758
1	41	40	1955.7024557721
1	42	41	1969.5841215905
1	43	42	1983.4787444612
1	44	43	1997.3802024601
1	45	44	2011.2714909082
1	46	45	2025.1553793969
1	47	46	2039.0458765477
1	48	47	2052.9329446238
1	49	48	2066.8462265795
1	50	49	2080.7728807703
1	51	50	2094.6498483503
1	52	51	2107.3969092406
1	53	52	2116.410831539
1	54	53	2120.9360540062
1	55	54	2120.5048353085
1	56	55	2120.0344859883
1	57	56	2119.5641121576
1	58	57	2119.0944308629
1	59	58	2118.6240558857
1	60	59	2118.1536666537
1	61	60	2117.6824006466
1	62	61	2117.2121830918
1	63	62	2116.7411177447
1	64	63	2116.2712858524
1	65	64	2115.8005333487
1	66	65	2114.7955725584
1	67	66	2112.8364102887
1	68	67	2110.6440530941
1	69	68	2106.1704403665
1	70	69	2101.6975887315
1	71	70	2096.6391956527
1	72	71	2089.5697793076
1	73	72	2082.9376931852
1	74	73	2078.419863862
1	75	74	2074.2936624894
1	76	75	2067.3736373968
1	77	76	2058.9511591028
1	78	77	2049.1102951029
1	79	78	2038.9478712408
1	80	79	2028.7758523691
1	81	80	2018.5996289225
1	82	81	2008.4287304608
1	83	82	1998.2495835368
1	84	83	1988.0651562605
1	85	84	1977.9077978879
1	86	85	1968.1884612162
1	87	86	1958.4779514531
1	88	87	1948.7639992675
1	89	88	1939.0549603878
1	90	89	1929.3436047509
1	91	90	1919.6330251861
1	92	91	1909.910822208
1	93	92	1900.1872029733
1	94	93	1890.4840445621
1	95	94	1880.7721485039
1	96	95	1871.0513723353
1	97	96	1861.0772373844
1	98	97	1851.0875595547
1	99	98	1841.096139106
1	100	99	1831.1202287339
1	101	100	1821.144089778
1	102	101	1811.1678648908
1	103	102	1801.1912086597
1	104	103	1791.209887621
1	105	104	1781.2482476477
1	106	105	1771.277584523
1	107	106	1761.5227281116
1	108	107	1751.9260671614
1	109	108	1742.3262181729
1	110	109	1732.5843797447
1	111	110	1722.8299162164
1	112	111	1713.086449923
1	113	112	1703.3381465003
1	114	113	1693.5765614985
1	115	114	1683.8264469272
1	116	115	1674.0761652095
1	117	116	1664.3203321155
1	118	117	1654.5670952313
1	119	118	1644.823870291
1	120	119	1635.0678587342
1	121	120	1625.336210235
1	123	121	1617.3395599481
1	124	122	1612.4929084415
1	125	123	1610.7962557143
1	126	124	1610.7962557143
1	127	125	1610.7962557143
1	128	126	1610.7962557143
1	129	127	1610.7962557143
1	130	128	1610.7962557143
1	131	129	1610.7962557143
1	132	130	1610.7962557143
1	133	131	1610.7962557143
1	134	132	1610.7962557143
1	316	133	1610.7962557143
1	317	134	1610.7962557143
1	3426	135	1610.7962557143
1	3427	136	1610.7962557143
1	9473	137	1610.7962557143
1	9474	138	1610.7962557143
1	14850	139	1610.7962557143
1	14851	140	1610.7962557143
1	15313	141	1610.7962557143
1	15314	142	1610.7962557143
1	15315	143	1610.7962557143
1	15316	144	1610.7962557143
1	15317	145	1610.7962557143
1	15318	146	1610.7962557143
1	15319	147	1610.7962557143
1	15320	148	1610.7962557143
1	15321	149	1610.7962557143
1	15322	150	1610.7962557143
1	15324	151	1610.7962557143
1	15325	152	1610.7962557143
1	15326	153	1610.7962557143
1	15327	154	1610.7962557143
1	15328	155	1610.7962557143
1	15329	156	1610.7962557143
1	15330	157	1610.7962557143
1	15331	158	1610.7962557143
1	15332	159	1610.7962557143
1	15333	160	1610.7962557143
1	15334	161	1610.7962557143
1	15335	162	1610.7962557143
1	15336	163	1610.7962557143
1	15337	164	1610.7962557143
1	15338	165	1610.7962557143
1	15339	166	1610.7962557143
1	15340	167	1610.7962557143
1	15341	168	1610.7962557143
1	15342	169	1610.7962557143
1	15343	170	1610.7962557143
1	15345	171	1609.9083209997
1	15346	172	1607.7013542419
1	15347	173	1604.0697508948
1	15348	174	1599.0310217068
1	15349	175	1592.712294071
1	15350	176	1585.0345054371
1	15351	177	1576.0187552162
1	15352	178	1566.2603475256
1	15353	179	1556.5009240294
1	15354	180	1546.7192927785
1	15356	181	1536.811393775
1	15357	182	1526.9019591818
1	15358	183	1517.0040373811
1	15359	184	1507.0860991199
1	15360	185	1497.1829677783
1	15361	186	1487.9555320889
1	15362	187	1478.8293183316
1	15363	188	1469.6999253202
1	15364	189	1460.5635325955
1	15365	190	1451.4351724582
1	15366	191	1442.9308958687
1	15367	192	1434.8918843111
1	15368	193	1426.858211264
1	15369	194	1418.8129869513
1	15370	195	1410.7751627453
1	15371	196	1404.1419435106
1	15372	197	1398.1891272748
1	15373	198	1392.2390611516
1	15374	199	1386.2848915989
1	15375	200	1381.9964248165
2	3	2	4.1061966058897
2	4	3	6.0195495591482
2	5	4	7.7148368984793
2	6	5	9.5879868385225
2	7	6	11.391389363371
2	8	7	13.513839789145
2	9	8	13.99235115225
2	10	9	13.890224446259
2	11	10	13.976677174468
2	12	11	13.994826577434
2	13	12	13.923680325528
2	14	13	13.923542996629
2	15	14	13.91007151508
2	16	15	13.964598868005
2	17	16	13.995233640105
2	18	17	13.952304350403
2	19	18	13.956911946491
2	20	19	11.503494614513
2	21	20	7.0034946145128
2	22	21	7.8970062485022
2	23	22	10.10483181514
2	24	23	11.990706169653
2	25	24	13.981089308816
2	26	25	13.965594365916
2	27	26	13.989059597438
2	28	27	13.956378436291
2	29	28	13.910982951869
2	30	29	13.88918493646
2	31	30	13.908189346099
2	32	31	13.983992603337
2	33	32	13.971500478752
2	34	33	13.873081948087
2	35	34	13.985133641064
2	36	35	13.886848415199
2	37	36	13.876205747321
2	38	37	13.967912819823
2	39	38	13.871047234884
2	40	39	13.89239756926
2	41	40	13.872267716837
2	42	41	13.999815066161
2	43	42	13.964707984752
2	44	43	13.906584702837
2	45	44	13.922364303169
2	46	45	13.929034490574
2	47	46	13.93922677479
2	48	47	13.924399639922
2	49	48	13.96850544848
2	50	49	13.986686690277
2	51	50	13.935194088209
2	52	51	13.930097484484
2	53	52	13.948393711536
2	54	53	13.882971800906
2	55	54	13.87138918183
2	56	55	13.933780807857
2	57	56	13.942265776542
2	58	57	13.95140511482
2	59	58	13.886548467774
2	60	59	13.920721456567
2	61	60	13.906796863726
2	62	61	13.917803910668
2	63	62	13.924582225601
2	64	63	13.959688465288
2	65	64	13.957318032989
2	66	65	13.940553226951
2	67	66	13.998651232829
2	68	67	13.999179182528
2	69	68	13.886099785112
2	70	69	13.881868150404
2	71	70	13.887636745651
2	72	71	13.978686858166
2	73	72	11.380505228889
2	74	73	6.8805052288885
2	75	74	8.4946715655791
2	76	75	10.462119500426
2	77	76	12.535577293956
2	78	77	13.991704303646
2	79	78	13.884412832095
2	80	79	13.939308186586
2	81	80	13.975432322551
2	82	81	13.918436620038
2	83	82	13.942294309565
2	84	83	13.978181636031
2	85	84	13.992612206677
2	86	85	13.973604970614
2	87	86	13.905247902325
2	88	87	13.91578970917
2	89	88	13.942760436635
2	90	89	13.903644982614
2	91	90	13.957507387074
2	92	91	13.990155698378
2	93	92	13.951199041368
2	94	93	13.920407453054
2	95	94	13.913764986643
2	96	95	13.919862737071
2	97	96	13.927667983579
2	98	97	13.987681491903
2	99	98	13.949967818004
2	100	99	13.923793041168
2	101	100	13.956372545112
2	102	101	13.893336640052
2	103	102	13.920919575624
2	104	103	13.944676370309
2	105	104	13.937630747855
2	106	105	13.901362465066
2	107	106	13.954829121996
2	108	107	13.995929163198
2	109	108	13.882499602956
2	110	109	13.910075074201
2	111	110	13.894284862701
2	112	111	13.913974985913
2	113	112	13.871336730926
2	114	113	13.935027445888
2	115	114	13.877062078733
2	116	115	13.981228611642
2	117	116	13.873776447547
2	118	117	13.92000553376
2	119	118	13.94351971182
2	120	119	13.968914518312
2	121	120	13.898790548788
2	123	121	9.3987905487884
2	124	122	4.8987905487884
2	125	123	0.39879054878839
2	126	124	0
2	127	125	0
2	128	126	0
2	129	127	0
2	130	128	0
2	131	129	0
2	132	130	0
2	133	131	0
2	134	132	0
2	316	133	0
2	317	134	0
2	3426	135	0
2	3427	136	0
2	9473	137	0
2	9474	138	0
2	14850	139	0
2	14851	140	0
2	15313	141	0
2	15314	142	0
2	15315	143	0
2	15316	144	0
2	15317	145	0
2	15318	146	0
2	15319	147	0
2	15320	148	0
2	15321	149	0
2	15322	150	0
2	15324	151	0
2	15325	152	0
2	15326	153	0
2	15327	154	0
2	15328	155	0
2	15329	156	0
2	15330	157	0
2	15331	158	0
2	15332	159	0
2	15333	160	0
2	15334	161	0
2	15335	162	0
2	15336	163	0
2	15337	164	0
2	15338	165	0
2	15339	166	0
2	15340	167	0
2	15341	168	0
2	15342	169	0
2	15343	170	0
2	15345	171	2.1811119467026
2	15346	172	4.0453259756974
2	15347	173	6.0932063849269
2	15348	174	8.0187115747131
2	15349	175	9.9014495166274
2	15350	176	11.801895319607
2	15351	177	13.83407127392
2	15352	178	13.914536354493
2	15353	179	13.895813735393
2	15354	180	13.910089362627
2	15356	181	13.939167072978
2	15357	182	13.890941011957
2	15358	183	13.892670119589
2	15359	184	13.952224605919
2	15360	185	13.999479316373
2	15361	186	13.976002587467
2	15362	187	13.950506590323
2	15363	188	13.906552949755
2	15364	189	13.99750653767
2	15365	190	13.944949751282
2	15366	191	13.972853473574
2	15367	192	13.942400607062
2	15368	193	13.883918874613
2	15369	194	13.88475032653
2	15370	195	13.884731394602
2	15371	196	13.890336052335
2	15372	197	13.89879816276
2	15373	198	13.914539138149
2	15374	199	13.99441452327
2	15375	200	13.905193985845
3	4	3	1.9133529532584
3	5	4	1.6952873393311
3	6	5	1.8731499400432
3	7	6	1.8034025248489
3	8	7	2.1224504257739
3	9	8	0.47851136310433
3	10	9	-0.1021267059911
3	11	10	0.086452728209551
3	12	11	0.018149402965792
3	13	12	-0.071146251906175
3	14	13	-0.0001373288989992
3	15	14	-0.013471481548622
3	16	15	0.054527352924923
3	17	16	0.03063477210002
3	18	17	-0.04292928970186
3	19	18	0.0046075960877356
3	20	19	-2.4534173319781
3	21	20	-4.5
3	22	21	0.8935116339894
3	23	22	2.2078255666373
3	24	23	1.8858743545134
3	25	24	1.9903831391631
3	26	25	-0.01549494290026
3	27	26	0.023465231521987
3	28	27	-0.032681161146611
3	29	28	-0.045395484422334
3	30	29	-0.021798015409148
3	31	30	0.019004409639164
3	32	31	0.075803257238585
3	33	32	-0.012492124584968
3	34	33	-0.098418530665803
3	35	34	0.11205169297755
3	36	35	-0.098285225864965
3	37	36	-0.01064266787842
3	38	37	0.091707072502468
3	39	38	-0.096865584938786
3	40	39	0.021350334375166
3	41	40	-0.020129852422979
3	42	41	0.12754734932445
3	43	42	-0.035107081409079
3	44	43	-0.058123281914741
3	45	44	0.015779600332026
3	46	45	0.0066701874043797
3	47	46	0.010192284216172
3	48	47	-0.014827134867664
3	49	48	0.044105808557942
3	50	49	0.018181241797283
3	51	50	-0.051492602068466
3	52	51	-0.0050966037251055
3	53	52	0.018296227052343
3	54	53	-0.065421910630539
3	55	54	-0.011582619075197
3	56	55	0.062391626026946
3	57	56	0.0084849686850799
3	58	57	0.0091393382777465
3	59	58	-0.064856647045817
3	60	59	0.034172988792415
3	61	60	-0.013924592840485
3	62	61	0.011007046941668
3	63	62	0.0067783149331806
3	64	63	0.035106239686721
3	65	64	-0.0023704322986315
3	66	65	-0.016764806038699
3	67	66	0.058098005878273
3	68	67	0.0005279496987356
3	69	68	-0.11307939741528
3	70	69	-0.0042316347081215
3	71	70	0.0057685952470639
3	72	71	0.091050112515221
3	73	72	-2.598181629278
3	74	73	-4.5
3	75	74	1.6141663366905
3	76	75	1.9674479348469
3	77	76	2.0734577935305
3	78	77	1.4561270096891
3	79	78	-0.10729147155071
3	80	79	0.054895354490727
3	81	80	0.036124135965947
3	82	81	-0.056995702513959
3	83	82	0.023857689527794
3	84	83	0.035887326465454
3	85	84	0.014430570646654
3	86	85	-0.01900723606348
3	87	86	-0.068357068288606
3	88	87	0.010541806844994
3	89	88	0.026970727464649
3	90	89	-0.039115454021376
3	91	90	0.053862404460089
3	92	91	0.032648311303928
3	93	92	-0.038956657010131
3	94	93	-0.030791588313878
3	95	94	-0.0066424664109945
3	96	95	0.0060977504285979
3	97	96	0.0078052465082141
3	98	97	0.060013508324046
3	99	98	-0.037713673899415
3	100	99	-0.026174776835834
3	101	100	0.032579503944145
3	102	101	-0.063035905060826
3	103	102	0.027582935572138
3	104	103	0.023756794685031
3	105	104	-0.0070456224540241
3	106	105	-0.036268282788805
3	107	106	0.053466656929812
3	108	107	0.041100041202736
3	109	108	-0.11342956024222
3	110	109	0.027575471245218
3	111	110	-0.015790211500134
3	112	111	0.019690123212058
3	113	112	-0.042638254987542
3	114	113	0.063690714961849
3	115	114	-0.057965367154683
3	116	115	0.10416653290857
3	117	116	-0.10745216409443
3	118	117	0.046229086213279
3	119	118	0.023514178059996
3	120	119	0.025394806491676
3	121	120	-0.070123969523701
3	123	121	-4.5
3	124	122	-4.5
3	125	123	-4.5
3	126	124	-0.39879054878839
3	127	125	0
3	128	126	0
3	129	127	0
3	130	128	0
3	131	129	0
3	132	130	0
3	133	131	0
3	134	132	0
3	316	133	0
3	317	134	0
3	3426	135	0
3	3427	136	0
3	9473	137	0
3	9474	138	0
3	14850	139	0
3	14851	140	0
3	15313	141	0
3	15314	142	0
3	15315	143	0
3	15316	144	0
3	15317	145	0
3	15318	146	0
3	15319	147	0
3	15320	148	0
3	15321	149	0
3	15322	150	0
3	15324	151	0
3	15325	152	0
3	15326	153	0
3	15327	154	0
3	15328	155	0
3	15329	156	0
3	15330	157	0
3	15331	158	0
3	15332	159	0
3	15333	160	0
3	15334	161	0
3	15335	162	0
3	15336	163	0
3	15337	164	0
3	15338	165	0
3	15339	166	0
3	15340	167	0
3	15341	168	0
3	15342	169	0
3	15343	170	0
3	15345	171	2.1811119467026
3	15346	172	1.8642140289948
3	15347	173	2.0478804092295
3	15348	174	1.9255051897862
3	15349	175	1.8827379419142
3	15350	176	1.9004458029801
3	15351	177	2.0321759543125
3	15352	178	0.080465080572878
3	15353	179	-0.018722619100009
3	15354	180	0.014275627234019
3	15356	181	0.029077710350975
3	15357	182	-0.048226061020978
3	15358	183	0.0017291076318369
3	15359	184	0.059554486330599
3	15360	185	0.047254710453561
3	15361	186	-0.023476728906388
3	15362	187	-0.025495997143445
3	15363	188	-0.04395364056807
3	15364	189	0.090953587915282
3	15365	190	-0.052556786388157
3	15366	191	0.027903722291812
3	15367	192	-0.030452866512352
3	15368	193	-0.058481732448563
3	15369	194	0.00083145191660172
3	15370	195	-1.8931927625587e-05
3	15371	196	0.0056046577333486
3	15372	197	0.0084621104248797
3	15373	198	0.015740975388326
3	15374	199	0.079875385120976
3	15375	200	-0.089220537424554
4	4	3	4.1962556146115
4	5	4	4.6765885426193
4	6	5	5.9822455727343
4	7	6	6.7469998477461
4	8	7	8.9023657158011
4	9	8	3.651678681686
4	10	9	1.6857621818206
4	11	10	2.3276633668785
4	12	11	2.0995306276608
4	13	12	1.7923040941768
4	14	13	2.0305681317735
4	15	14	1.9844951865828
4	16	15	2.2187318873595
4	17	16	2.1416854339172
4	18	17	1.8896148890835
4	19	18	2.0499339673421
4	20	19	0.973
4	21	20	0.973
4	22	21	3.236958348016
4	23	22	7.0694109561587
4	24	23	7.2974163894139
4	25	24	8.7433911631671
4	26	25	1.9831721788576
4	27	26	2.116835898497
4	28	27	1.9244585801898
4	29	28	1.8775583559564
4	30	29	1.9545657515643
4	31	30	2.0931646705581
4	32	31	2.2926746988581
4	33	32	1.993865292131
4	34	33	1.6968396252803
4	35	34	2.4149847823944
4	36	35	1.6983583398882
4	37	36	1.9906198998388
4	38	37	2.3442713071536
4	39	38	1.7018725964397
4	40	39	2.0993392475273
4	41	40	1.9585122345881
4	42	41	2.4691677522194
4	43	42	1.9170802753567
4	44	43	1.8345014514108
4	45	44	2.0838538984303
4	46	45	2.0539801513469
4	47	46	2.0668686152862
4	48	47	1.9813596940184
4	49	48	2.1840996762636
4	50	49	2.0987681125428
4	51	50	1.8592856847688
4	52	51	2.0145873760113
4	53	52	2.0950692067684
4	54	53	1.8080099866508
4	55	54	1.9870007069688
4	56	55	2.2415869227426
4	57	56	2.0614496349521
4	58	57	2.0646020593826
4	59	58	1.8102089718445
4	60	59	2.1453880261281
4	61	60	1.9826536733129
4	62	61	2.0673636130683
4	63	62	2.0538817544551
4	64	63	2.1528270365066
4	65	64	2.0265038417738
4	66	65	1.9764402783138
4	67	66	2.2347131127692
4	68	67	2.0405446651404
4	69	68	1.6487905152147
4	70	69	2.0126291187762
4	71	70	2.0466796925005
4	72	71	2.3433989621326
4	73	72	0.973
4	74	73	0.973
4	75	74	4.8809554156367
4	76	75	6.6811452761601
4	77	76	8.1607584221603
4	78	77	6.9480584672652
4	79	78	1.6680322027993
4	80	79	2.2170514259717
4	81	80	2.1579993066844
4	82	81	1.8393252185798
4	83	82	2.1131063774542
4	84	83	2.157506963768
4	85	84	2.0867532276998
4	86	85	1.9721338004887
4	87	86	1.8000889448787
4	88	87	2.0655927143501
4	89	88	2.1236171019815
4	90	89	1.8979343131076
4	91	90	2.2156768175481
4	92	91	2.1479163480387
4	93	92	1.9028703189759
4	94	93	1.9274090838955
4	95	94	2.0077586487826
4	96	95	2.0511097794732
4	97	96	2.0576484682309
4	98	97	2.2398922754829
4	99	98	1.9069349143407
4	100	99	1.9432214712872
4	101	100	2.1439613436349
4	102	101	1.8168896615362
4	103	102	2.1233006114287
4	104	103	2.1130242583451
4	105	104	2.0088001748926
4	106	105	1.9072621324086
4	107	106	2.2140373373517
4	108	107	2.1770614278808
4	109	108	1.6473510828978
4	110	109	2.1220983905492
4	111	110	1.9751750017376
4	112	111	2.0960799393481
4	113	112	1.8831767790609
4	114	113	2.2460956727086
4	115	114	1.8324400030243
4	116	115	2.3879104851153
4	117	116	1.6666890233496
4	118	117	2.1857539942143
4	119	118	2.1120842252302
4	120	119	2.1211551333534
4	121	120	1.7936195303491
4	123	121	0.973
4	124	122	0.973
4	125	123	0.973
4	126	124	0.973
4	127	125	0.973
4	128	126	0.973
4	129	127	0.973
4	130	128	0.973
4	131	129	0.973
4	132	130	0.973
4	133	131	0.973
4	134	132	0.973
4	316	133	0.973
4	317	134	0.973
4	3426	135	0.973
4	3427	136	0.973
4	9473	137	0.973
4	9474	138	0.973
4	14850	139	0.973
4	14851	140	0.973
4	15313	141	0.973
4	15314	142	0.973
4	15315	143	0.973
4	15316	144	0.973
4	15317	145	0.973
4	15318	146	0.973
4	15319	147	0.973
4	15320	148	0.973
4	15321	149	0.973
4	15322	150	0.973
4	15324	151	0.973
4	15325	152	0.973
4	15326	153	0.973
4	15327	154	0.973
4	15328	155	0.973
4	15329	156	0.973
4	15330	157	0.973
4	15331	158	0.973
4	15332	159	0.973
4	15333	160	0.973
4	15334	161	0.973
4	15335	162	0.973
4	15336	163	0.973
4	15337	164	0.973
4	15338	165	0.973
4	15339	166	0.973
4	15340	167	0.973
4	15341	168	0.973
4	15342	169	0.973
4	15343	170	0.973
4	15345	171	2.3626724592857
4	15346	172	3.1287282212708
4	15347	173	4.4320706214833
4	15348	174	5.2655103435678
4	15349	175	6.1700025963993
4	15350	176	7.236533880475
4	15351	177	8.7972339451728
4	15352	178	2.2999427443572
4	15353	179	1.9655044288347
4	15354	180	2.0775144544636
4	15356	181	2.1303049273436
4	15357	182	1.8662615232258
4	15358	183	2.033673889386
4	15359	184	2.23420784057
4	15360	185	2.1982257104182
4	15361	186	1.9573140258345
4	15362	187	1.9480617756013
4	15363	188	1.8819879216934
4	15364	189	2.3454146937772
4	15365	190	1.8565841824635
4	15366	191	2.1300309935719
4	15367	192	1.9306279363077
4	15368	193	1.8313133380341
4	15369	194	2.0298613991753
4	15370	195	2.0270138989556
4	15371	196	2.0464091742132
4	15372	197	2.0568529239251
4	15373	198	2.0828970131459
4	15374	199	2.3076669572113
4	15375	200	1.7301676918945
5	5	4	2414.8767583254
5	6	5	2411.8725636174
5	7	6	2407.2970525089
5	8	7	2402.4626210862
5	9	8	2396.3056860371
5	10	9	2388.8743536096
5	11	10	2380.097228827
5	12	11	2370.3507264333
5	13	12	2360.5878487076
5	14	13	2350.7849318213
5	15	14	2341.2418729237
5	16	15	2334.6305580324
5	17	16	2337.3467480277
5	18	17	2348.0519014368
5	19	18	2358.3998493504
5	20	19	2371.2788021446
5	21	20	2385.0887639745
5	22	21	2398.4985461925
5	23	22	2411.2485283293
5	24	23	2420.6905829484
5	25	24	2427.6440450998
5	26	25	2431.3031180431
5	27	26	2432.9057471878
5	28	27	2434.8184996871
5	29	28	2436.9106889558
5	30	29	2438.5031214217
5	31	30	2439.359314087
5	32	31	2440.3695716034
5	33	32	2441.3815056744
5	34	33	2442.392207776
5	35	34	2443.4019859718
5	36	35	2444.4122552489
5	37	36	2445.4251439738
5	38	37	2446.4367595227
5	39	38	2447.4467230743
5	40	39	2448.4574488286
5	41	40	2449.467800329
5	42	41	2450.4780716181
5	43	42	2449.7461704329
5	44	43	2448.6331060936
5	45	44	2447.5209445587
5	46	45	2446.407523851
5	47	46	2445.2946584851
5	48	47	2444.1824360332
5	49	48	2443.0706190476
5	50	49	2441.9568028547
5	51	50	2440.8451110823
5	52	51	2439.8503503047
5	53	52	2438.9091742415
5	54	53	2438.2310626655
5	55	54	2433.9050446447
5	56	55	2424.21615465
5	57	56	2411.3460908785
5	58	57	2397.4706148925
5	59	58	2383.5587488873
5	60	59	2369.633660475
5	61	60	2355.7048479554
5	62	61	2341.7904321874
5	63	62	2327.8638711022
5	64	63	2313.9188814831
5	65	64	2299.9979078089
5	66	65	2286.0826278217
5	67	66	2272.1551827891
5	68	67	2258.2333055256
5	69	68	2244.3319301521
5	70	69	2230.5388995206
5	71	70	2216.7493601282
5	72	71	2203.5089906314
5	73	72	2190.3028214657
5	74	73	2177.2175397498
5	75	74	2165.2424954871
5	76	75	2153.7742474813
5	77	76	2145.5067126864
5	78	77	2139.5021617314
5	79	78	2133.1382634535
5	80	79	2125.5907683726
5	81	80	2116.6856371113
5	82	81	2107.1659774036
5	83	82	2097.6471887421
5	84	83	2088.1193509075
5	85	84	2078.5897193553
5	86	85	2069.0611372048
5	87	86	2059.5358263678
5	88	87	2050.0131364827
5	89	88	2040.1145859665
5	90	89	2030.1137191838
5	91	90	2020.1430603783
5	92	91	2010.1475011546
5	93	92	2000.1671663148
5	94	93	1990.1688805242
5	95	94	1980.1967867191
5	96	95	1970.2022643924
5	97	96	1960.2251632516
5	98	97	1950.2447792089
5	99	98	1940.2416033717
5	100	99	1930.4505492545
5	101	100	1920.7111281679
5	102	101	1910.9822782709
5	103	102	1901.2447243325
5	104	103	1891.5146576024
5	105	104	1881.7809631245
5	106	105	1872.0450304444
5	107	106	1862.3040305478
5	108	107	1852.5818645544
5	109	108	1842.8447400127
5	110	109	1832.9814100579
5	111	110	1822.8651402954
5	112	111	1812.7663602663
5	113	112	1802.7683831069
5	114	113	1792.8207055556
5	115	114	1782.8564651203
5	116	115	1772.894810806
5	117	116	1762.92641096
5	118	117	1752.9705464942
5	119	118	1743.0163782743
5	120	119	1733.0664695518
5	121	120	1723.1120307929
5	123	121	1713.1667215774
5	124	122	1703.2206722586
5	125	123	1694.731917471
5	126	124	1684.4975059913
5	127	125	1675.1866231293
5	128	126	1665.235300479
5	129	127	1655.2930866103
5	130	128	1645.3339160052
5	131	129	1635.3922031604
5	132	130	1625.466982659
5	133	131	1617.8244975633
5	134	132	1608.0894573816
5	316	133	1598.2708764096
5	317	134	1588.452432344
5	3426	135	1578.6396544373
5	3427	136	1568.8176315482
5	9473	137	1558.8928584232
5	9474	138	1548.3506854842
5	14850	139	1537.8012570504
5	14851	140	1527.2345173439
5	15313	141	1516.6936982435
5	15314	142	1506.1552999533
5	15315	143	1494.8669122814
5	15316	144	1483.4712608486
5	15317	145	1472.0899255297
5	15318	146	1460.6786312994
5	15319	147	1449.2780298073
5	15320	148	1436.7273084671
5	15321	149	1424.113220488
5	15322	150	1411.4754915665
5	15324	151	1398.6623444551
5	15325	152	1385.3756645193
5	15326	153	1372.083699918
5	15327	154	1358.8022898326
5	15328	155	1345.0583398684
5	15329	156	1331.3242315042
5	15330	157	1317.6864978853
5	15331	158	1303.9406047174
5	15332	159	1290.215162802
5	15333	160	1276.4443482521
5	15334	161	1262.6841349271
5	15335	162	1248.8325316204
5	15336	163	1234.9706717234
5	15337	164	1221.1149948494
5	15338	165	1207.2546602729
5	15339	166	1193.3860053112
5	15340	167	1179.5446858846
5	15341	168	1165.664443926
5	15342	169	1151.8198612472
5	15343	170	1137.9566699873
5	15345	171	1124.0951255399
5	15346	172	1110.2137210533
5	15347	173	1096.3070119153
5	15348	174	1082.4028340873
5	15349	175	1068.5217973328
5	15350	176	1054.6568033352
5	15351	177	1040.7825799382
5	15352	178	1026.8867736324
5	15353	179	1013.0216213984
5	15354	180	999.14912659279
5	15356	181	985.2612360355
5	15357	182	971.36591698264
5	15358	183	957.46444496559
5	15359	184	943.61138506734
5	15360	185	929.75680484052
5	15361	186	915.88868077262
5	15362	187	902.02685015462
5	15363	188	888.14815374941
5	15364	189	874.25540872896
5	15365	190	860.38390743232
5	15366	191	846.49151880213
5	15367	192	832.58362718427
5	15368	193	818.66514833609
5	15369	194	804.79538405768
5	15370	195	790.98752032709
5	15371	196	777.16881869768
5	15372	197	763.37432024558
5	15373	198	748.90300483967
5	15374	199	735.32331659494
5	15375	200	721.74557914725
6	5	4	1578.4506684253
6	6	5	1579.5537930429
6	7	6	1581.4165868293
6	8	7	1586.3131998433
6	9	8	1592.5493268352
6	10	9	1600.0762428036
6	11	10	1608.9662610246
6	12	11	1618.8381252186
6	13	12	1628.7265753681
6	14	13	1638.6555796713
6	15	14	1648.8046840783
6	16	15	1660.6325348346
6	17	16	1673.301875555
6	18	17	1682.2138796467
6	19	18	1691.5459182626
6	20	19	1695.5099147679
6	21	20	1697.3308411958
6	22	21	1698.6335971011
6	23	22	1699.8391930545
6	24	23	1700.7320023719
6	25	24	1701.2941834759
6	26	25	1708.3978488175
6	27	26	1718.9439634858
6	28	27	1731.5308475178
6	29	28	1745.2985167308
6	30	29	1759.1189484736
6	31	30	1773.033284259
6	32	31	1786.9263172904
6	33	32	1800.8424062571
6	34	33	1814.7415532097
6	35	34	1828.6279946407
6	36	35	1842.5211894047
6	37	36	1856.4504067414
6	38	37	1870.362115399
6	39	38	1884.2511058366
6	40	39	1898.150578063
6	41	40	1912.0449035605
6	42	41	1925.9381259941
6	43	42	1939.8457802581
6	44	43	1953.7382693188
6	45	44	1967.6194902081
6	46	45	1981.5164272105
6	47	46	1995.4064328251
6	48	47	2009.2884140396
6	49	48	2023.165334505
6	50	49	2037.0672076773
6	51	50	2050.942565321
6	52	51	2064.8483957723
6	53	52	2078.754013543
6	54	53	2092.6537938379
6	55	54	2105.6893007364
6	56	55	2115.3934075218
6	57	56	2120.5034639826
6	58	57	2120.5707901428
6	59	58	2120.100904949
6	60	59	2119.6305731572
6	61	60	2119.160115581
6	62	61	2118.6901442679
6	63	62	2118.2197627351
6	64	63	2117.748758764
6	65	64	2117.2785659507
6	66	65	2116.8085654471
6	67	66	2116.3381540589
6	68	67	2115.8679307271
6	69	68	2115.0734324455
6	70	69	2113.117474094
6	71	70	2111.1620108271
6	72	71	2106.8134566117
6	73	72	2102.3345389208
6	74	73	2097.6439806372
6	75	74	2090.5944611588
6	76	75	2083.8432846358
6	77	76	2078.976317442
6	78	77	2075.2888157107
6	79	78	2069.0204663062
6	80	79	2060.9635068728
6	81	80	2051.4572692998
6	82	81	2041.2950219223
6	83	82	2031.1337043885
6	84	83	2020.9627268519
6	85	84	2010.7898345208
6	86	85	2000.6180624254
6	87	86	1990.4497824619
6	88	87	1980.2843003673
6	89	88	1970.4765505949
6	90	89	1960.7547187759
6	91	90	1951.0622520996
6	92	91	1941.3455797536
6	93	92	1931.6437070146
6	94	93	1921.9243841758
6	95	94	1912.2305225376
6	96	95	1902.5148581574
6	97	96	1892.8161288938
6	98	97	1883.1142083248
6	99	98	1873.3901318768
6	100	99	1863.491690998
6	101	100	1853.5113144172
6	102	101	1843.5417705588
6	103	102	1833.5633073198
6	104	103	1823.5925165238
6	105	104	1813.618008229
6	106	105	1803.6412063586
6	107	106	1793.6592119075
6	108	107	1783.6965173148
6	109	108	1773.7184940958
6	110	109	1763.8847696399
6	111	110	1754.2768921675
6	112	111	1744.6856254824
6	113	112	1734.9963352662
6	114	113	1725.2474866733
6	115	114	1715.4824062474
6	116	115	1705.7198602511
6	117	116	1695.9507035501
6	118	117	1686.1938316785
6	119	118	1676.4386221487
6	120	119	1666.6875869809
6	121	120	1656.9321123194
6	123	121	1647.1855847258
6	124	122	1637.438331821
6	125	123	1629.1192458095
6	126	124	1623.713512212
6	127	125	1614.5886915503
6	128	126	1604.8362292033
6	129	127	1595.0926936148
6	130	128	1585.3325401405
6	131	129	1575.5894955639
6	132	130	1565.862613759
6	133	131	1553.74901105
6	134	132	1543.9399249414
6	316	133	1534.02852125
6	317	134	1524.1172557594
6	3426	135	1514.2117099948
6	3427	136	1504.2968318472
6	9473	137	1494.5017142156
6	9474	138	1485.3826779248
6	14850	139	1476.2573655918
6	14851	140	1467.1170789152
6	15313	141	1457.999213702
6	15314	142	1448.8834425025
6	15315	143	1440.688606645
6	15316	144	1432.6578531852
6	15317	145	1424.6371885892
6	15318	146	1416.595411323
6	15319	147	1408.561169453
6	15320	148	1402.4916591551
6	15321	149	1396.5446250839
6	15322	150	1390.5864452617
6	15324	151	1385.0899307039
6	15325	152	1380.8032495622
6	15326	153	1376.5148634296
6	15327	154	1372.2298824992
6	15328	155	1370.2590069948
6	15329	156	1367.8495142991
6	15330	157	1365.4549894165
6	15331	158	1363.1613943605
6	15332	159	1360.6443776526
6	15333	160	1358.4741568705
6	15334	161	1356.294471208
6	15335	162	1354.8280957667
6	15336	163	1353.3662370928
6	15337	164	1351.9050304741
6	15338	165	1350.4433326591
6	15339	166	1348.9807573846
6	15340	167	1347.5210648887
6	15341	168	1346.0572676603
6	15342	169	1344.5972310249
6	15343	170	1343.1352319466
6	15345	171	1341.6734065404
6	15346	172	1340.4789980156
6	15347	173	1339.5253951028
6	15348	174	1338.5180529943
6	15349	175	1337.3572578523
6	15350	176	1336.1679579094
6	15351	177	1334.9778662948
6	15352	178	1333.785923359
6	15353	179	1332.596609843
6	15354	180	1331.4066665014
6	15356	181	1330.2154025557
6	15357	182	1329.0235014157
6	15358	183	1327.8310724907
6	15359	184	1326.6427962212
6	15360	185	1325.4543895414
6	15361	186	1324.2648211103
6	15362	187	1323.1228190837
6	15363	188	1322.0129882218
6	15364	189	1320.9020339409
6	15365	190	1319.7910448685
6	15366	191	1318.6900788993
6	15367	192	1317.9675910231
6	15368	193	1317.2029369576
6	15369	194	1315.8226528168
6	15370	195	1314.0062337145
6	15371	196	1312.1205317164
6	15372	197	1310.2381324871
6	15373	198	1311.417194277
6	15374	199	1308.2397812726
6	15375	200	1305.0628247205
7	6	5	4.0332649588119
7	7	6	5.8265110515686
7	8	7	7.7852127750962
7	9	8	9.5658873894228
7	10	9	11.450149483434
7	11	10	13.391487500134
7	12	11	13.949883621705
7	13	12	13.87602620427
7	14	13	13.885232782268
7	15	14	13.987373048679
7	16	15	13.890608048609
7	17	16	13.887004709987
7	18	17	13.926980708602
7	19	18	13.89086526999
7	20	19	13.965056618985
7	21	20	13.946692067499
7	22	21	13.097137451398
7	23	22	11.939132677032
7	24	23	7.4783001788439
7	25	24	7.8592269216425
7	26	25	9.5749213322898
7	27	26	11.610942506126
7	28	27	13.581243869506
7	29	28	13.973211987913
7	30	29	13.918392209036
7	31	30	13.928662607018
7	32	31	13.985277111761
7	33	32	13.95532245066
7	34	33	13.938708755139
7	35	34	13.908545650935
7	36	35	13.927478809105
7	37	36	13.897819017794
7	38	37	13.989504252097
7	39	38	13.94374062394
7	40	39	13.903882643976
7	41	40	13.969130632835
7	42	41	13.884234787642
7	43	42	13.881978327318
7	44	43	13.927070145076
7	45	44	13.922745489741
7	46	45	13.95273740395
7	47	46	13.968270483359
7	48	47	13.918685564972
7	49	48	13.921468284922
7	50	49	13.897015957548
7	51	50	13.964752228069
7	52	51	13.91147568828
7	53	52	13.974545761354
7	54	53	13.965476403411
7	55	54	13.989670229855
7	56	55	13.951804798429
7	57	56	13.892850009208
7	58	57	13.958218119799
7	59	58	13.933717581006
7	60	59	13.982012811573
7	61	60	13.954506225567
7	62	61	13.954468280503
7	63	62	13.914126337939
7	64	63	13.998578815588
7	65	64	13.932968401979
7	66	65	13.954534002345
7	67	66	13.957377178506
7	68	67	13.932528918332
7	69	68	13.977439161665
7	70	69	13.873707558191
7	71	70	13.945779315263
7	72	71	13.942668949808
7	73	72	13.91575948562
7	74	73	13.907857767178
7	75	74	13.74288410399
7	76	75	12.057991498623
7	77	76	7.5687227125094
7	78	77	7.8527784139012
7	79	78	9.8502493766883
7	80	79	11.94908444162
7	81	80	13.947927183691
7	82	81	13.884608772129
7	83	82	13.932486002932
7	84	83	13.933768573357
7	85	84	13.982790281298
7	86	85	13.883384850675
7	87	86	13.990208008899
7	88	87	13.960943002203
7	89	88	13.999323605334
7	90	89	13.898829272678
7	91	90	13.923322260124
7	92	91	13.97501944537
7	93	92	13.884102251558
7	94	93	13.933503699079
7	95	94	13.929935510485
7	96	95	13.932084917249
7	97	96	13.988024637371
7	98	97	13.905199357776
7	99	98	13.983067730833
7	100	99	13.914689087677
7	101	100	13.959573372188
7	102	101	13.923151327679
7	103	102	13.932330102022
7	104	103	13.918786156045
7	105	104	13.941547459932
7	106	105	13.993384758611
7	107	106	13.9334619325
7	108	107	13.965882125574
7	109	108	13.965947124253
7	110	109	13.962241288945
7	111	110	13.920445105487
7	112	111	13.900235885235
7	113	112	13.927397497708
7	114	113	13.881139268694
7	115	114	13.958390111653
7	116	115	13.981258456206
7	117	116	13.984943927396
7	118	117	13.922500399102
7	119	118	13.970498575137
7	120	119	13.977092044705
7	121	120	13.902077802429
7	123	121	13.948530204676
7	124	122	13.778322368322
7	125	123	10.388071325643
7	126	124	12.048368769422
7	127	125	13.869278359864
7	128	126	13.887921628156
7	129	127	13.997254950008
7	130	128	13.896713757399
7	131	129	13.888332184691
7	132	130	13.881382933802
7	133	131	13.9793959553
7	134	132	13.874559563915
7	316	133	13.955679739479
7	317	134	13.938250236956
7	3426	135	13.956001663669
7	3427	136	13.911734939432
7	9473	137	13.969402331575
7	9474	138	13.994939117278
7	14850	139	13.884466655198
7	14851	140	13.918847183292
7	15313	141	13.932782278426
7	15314	142	13.874871585753
7	15315	143	13.934328983228
7	15316	144	13.983735861855
7	15317	145	13.904175200565
7	15318	146	13.960250182403
7	15319	147	13.912415753829
7	15320	148	13.92642573474
7	15321	149	13.944790655465
7	15322	150	13.972160039819
7	15324	151	13.891077681468
7	15325	152	13.880399412508
7	15326	153	13.98229342269
7	15327	154	13.899182180841
7	15328	155	13.880591695262
7	15329	156	13.931743651091
7	15330	157	13.887021148589
7	15331	158	13.968065128438
7	15332	159	13.988566616371
7	15333	160	13.875022802541
7	15334	161	13.933389595561
7	15335	162	13.911174021361
7	15336	163	13.883490087672
7	15337	164	13.890171930399
7	15338	165	13.87638197076
7	15339	166	13.895974704253
7	15340	167	13.9830003971
7	15341	168	13.998678216252
7	15342	169	13.901010623516
7	15343	170	13.966955763372
7	15345	171	13.950181871944
7	15346	172	13.946657910503
7	15347	173	13.876740171856
7	15348	174	13.934289497978
7	15349	175	13.877446045873
7	15350	176	13.929564368101
7	15351	177	13.930147549575
7	15352	178	13.905267591528
7	15353	179	13.951620736399
7	15354	180	13.903420329492
7	15356	181	13.98671483136
7	15357	182	13.915233746483
7	15358	183	13.999220078781
7	15359	184	13.884353711943
7	15360	185	13.918388211089
7	15361	186	13.932342073282
7	15362	187	13.88322601035
7	15363	188	13.906741787679
7	15364	189	13.88193507567
7	15365	190	13.882203772219
7	15366	191	13.955325700231
7	15367	192	13.891419686801
7	15368	193	13.938470389652
7	15369	194	13.924903344482
7	15370	195	13.890324575806
7	15371	196	13.926575700976
7	15372	197	13.926482135677
7	15373	198	13.980987048948
7	15374	199	13.89132985312
7	15375	200	13.991041405685
8	7	6	1.7932460927567
8	8	7	1.9587017235276
8	9	8	1.7806746143266
8	10	9	1.8842620940111
8	11	10	1.9413380167005
8	12	11	0.5583961215709
8	13	12	-0.073857417434921
8	14	13	0.0092065779981212
8	15	14	0.10214026641101
8	16	15	-0.096765000070445
8	17	16	-0.0036033386224883
8	18	17	0.039975998615846
8	19	18	-0.036115438612178
8	20	19	0.074191348995083
8	21	20	-0.018364551486448
8	22	21	-0.84955461610103
8	23	22	-1.1580047743662
8	24	23	-4.4608324981877
8	25	24	0.38092674279862
8	26	25	1.7156944106473
8	27	26	2.0360211738362
8	28	27	1.9703013633797
8	29	28	0.39196811840698
8	30	29	-0.054819778876846
8	31	30	0.010270397982096
8	32	31	0.056614504742901
8	33	32	-0.029954661100637
8	34	33	-0.016613695521373
8	35	34	-0.030163104203529
8	36	35	0.018933158169965
8	37	36	-0.029659791311714
8	38	37	0.091685234303586
8	39	38	-0.045763628156855
8	40	39	-0.039857979963999
8	41	40	0.065247988859191
8	42	41	-0.08489584519295
8	43	42	-0.0022564603248618
8	44	43	0.045091817758511
8	45	44	-0.0043246553349299
8	46	45	0.029991914208512
8	47	46	0.015533079409506
8	48	47	-0.0495849183877
8	49	48	0.0027827199501917
8	50	49	-0.024452327373437
8	51	50	0.067736270520836
8	52	51	-0.053276539789513
8	53	52	0.063070073074195
8	54	53	-0.0090693579427903
8	55	54	0.024193826443517
8	56	55	-0.037865431425162
8	57	56	-0.058954789221753
8	58	57	0.065368110591081
8	59	58	-0.024500538792926
8	60	59	0.048295230567454
8	61	60	-0.027506586005911
8	62	61	-3.7945064249811e-05
8	63	62	-0.040341942564119
8	64	63	0.08445247764932
8	65	64	-0.065610413609539
8	66	65	0.021565600365866
8	67	66	0.0028431761614058
8	68	67	-0.024848260174041
8	69	68	0.044910243332852
8	70	69	-0.10373160347343
8	71	70	0.072071757072118
8	72	71	-0.0031103654555054
8	73	72	-0.02690946418792
8	74	73	-0.0079017184418628
8	75	74	-0.16497366318824
8	76	75	-1.6848926053673
8	77	76	-4.4892687861132
8	78	77	0.28405570139177
8	79	78	1.997470962787
8	80	79	2.0988350649318
8	81	80	1.9988427420706
8	82	81	-0.063318411561289
8	83	82	0.04787723080255
8	84	83	0.0012825704249551
8	85	84	0.049021707940847
8	86	85	-0.099405430622864
8	87	86	0.10682315822458
8	88	87	-0.029265006696805
8	89	88	0.038380603131372
8	90	89	-0.1004943326558
8	91	90	0.024492987445557
8	92	91	0.05169718524674
8	93	92	-0.090917193812784
8	94	93	0.049401447521522
8	95	94	-0.0035681885946541
8	96	95	0.0021494067646568
8	97	96	0.055939720121678
8	98	97	-0.082825279594399
8	99	98	0.077868373056408
8	100	99	-0.068378643156029
8	101	100	0.044884284511209
8	102	101	-0.036422044509091
8	103	102	0.0091787743428728
8	104	103	-0.013543945976998
8	105	104	0.022761303887236
8	106	105	0.051837298679166
8	107	106	-0.059922826110851
8	108	107	0.032420193073339
8	109	108	6.4998678864114e-05
8	110	109	-0.0037058353074837
8	111	110	-0.041796183458063
8	112	111	-0.020209220252001
8	113	112	0.02716161247343
8	114	113	-0.04625822901493
8	115	114	0.07725084295962
8	116	115	0.022868344553281
8	117	116	0.003685471189673
8	118	117	-0.062443528294096
8	119	118	0.04799817603547
8	120	119	0.0065934695675978
8	121	120	-0.075014242276085
8	123	121	0.046452402246651
8	124	122	-0.17020783635411
8	125	123	-3.3902510426788
8	126	124	1.6602974437791
8	127	125	1.8209095904417
8	128	126	0.018643268292182
8	129	127	0.10933332185261
8	130	128	-0.10054119260982
8	131	129	-0.0083815727080214
8	132	130	-0.0069492508890114
8	133	131	0.098013021498918
8	134	132	-0.10483639138518
8	316	133	0.081120175563266
8	317	134	-0.017429502522573
8	3426	135	0.017751426713074
8	3427	136	-0.044266724237239
8	9473	137	0.057667392143047
8	9474	138	0.025536785703153
8	14850	139	-0.11047246207949
8	14851	140	0.034380528093315
8	15313	141	0.013935095134656
8	15314	142	-0.057910692673175
8	15315	143	0.059457397474906
8	15316	144	0.049406878626906
8	15317	145	-0.079560661290307
8	15318	146	0.056074981838465
8	15319	147	-0.047834428574424
8	15320	148	0.014009980910922
8	15321	149	0.018364920725581
8	15322	150	0.027369384353515
8	15324	151	-0.081082358350978
8	15325	152	-0.010678268959746
8	15326	153	0.101894010182
8	15327	154	-0.083111241848673
8	15328	155	-0.018590485579335
8	15329	156	0.051151955828537
8	15330	157	-0.044722502501681
8	15331	158	0.0810439798492
8	15332	159	0.020501487932634
8	15333	160	-0.11354381382931
8	15334	161	0.058366793019232
8	15335	162	-0.0222155741998
8	15336	163	-0.027683933689259
8	15337	164	0.0066818427271205
8	15338	165	-0.013789959638379
8	15339	166	0.019592733492608
8	15340	167	0.087025692847092
8	15341	168	0.015677819151897
8	15342	169	-0.097667592735961
8	15343	170	0.065945139855613
8	15345	171	-0.01677389142802
8	15346	172	-0.0035239614406599
8	15347	173	-0.069917738647201
8	15348	174	0.057549326121807
8	15349	175	-0.056843452104367
8	15350	176	0.052118322227615
8	15351	177	0.00058318147435799
8	15352	178	-0.024879958047531
8	15353	179	0.046353144871537
8	15354	180	-0.048200406907126
8	15356	181	0.083294501868076
8	15357	182	-0.07148108487716
8	15358	183	0.083986332297792
8	15359	184	-0.11486636683811
8	15360	185	0.034034499146511
8	15361	186	0.013953862192574
8	15362	187	-0.049116062931716
8	15363	188	0.023515777329449
8	15364	189	-0.024806712009013
8	15365	190	0.00026869654888273
8	15366	191	0.073121928011533
8	15367	192	-0.063906013430095
8	15368	193	0.047050702851266
8	15369	194	-0.013567045170348
8	15370	195	-0.034578768676147
8	15371	196	0.036251125170383
8	15372	197	-9.3565299176035e-05
8	15373	198	0.054504913270939
8	15374	199	-0.089657195827458
8	15375	200	0.099711552564987
9	7	6	3.9274001426868
9	8	7	5.2041356246368
9	9	8	5.7574507674447
9	10	9	7.0006276784153
9	11	10	8.2432295261252
9	12	11	3.9110016848773
9	13	12	1.7792042638201
9	14	13	2.0579365757541
9	15	14	2.3818636967155
9	16	15	1.7037407999188
9	17	16	2.0152488537881
9	18	17	2.1655550639215
9	19	18	1.906797412239
9	20	19	2.2849654495652
9	21	20	1.9716653983805
9	22	21	0.973
9	23	22	0.973
9	24	23	0.973
9	25	24	2.2554772362628
9	26	25	5.6120472675651
9	27	26	7.5119842129131
9	28	27	8.4455276517466
9	29	28	3.3560730035355
9	30	29	1.8466200733259
9	31	30	2.0660268329645
9	32	31	2.2281549844786
9	33	32	1.9335288120447
9	34	33	1.9767670407741
9	35	34	1.9283950769156
9	36	35	2.0949799016024
9	37	36	1.9290667558988
9	38	37	2.3468857079218
9	39	38	1.8793040227889
9	40	39	1.8954681876561
9	41	40	2.2553467174174
9	42	41	1.7429567241042
9	43	42	2.0192482635441
9	44	43	2.1827359052182
9	45	44	2.0164367628106
9	46	45	2.1348602115454
9	47	46	2.0878872407227
9	48	47	1.8642059318509
9	49	48	2.0401536442479
9	50	49	1.9464315106901
9	51	50	2.2632042711189
9	52	51	1.851180617826
9	53	52	2.2486511283506
9	54	53	2.0047870143605
9	55	54	2.1193583924862
9	56	55	1.9065956504161
9	57	56	1.8305118457369
9	58	57	2.2544630998412
9	59	58	1.9497933768092
9	60	59	2.199742909699
9	61	60	1.9416842431598
9	62	61	2.0340583936544
9	63	62	1.8947902862501
9	64	63	2.3236156337703
9	65	64	1.8116807487081
9	66	65	2.1067187558746
9	67	66	2.0440470145686
9	68	67	1.9485115452067
9	69	68	2.1878187851485
9	70	69	1.6791237400594
9	71	70	2.2755265645048
9	72	71	2.0225291815531
9	73	72	1.9399893034582
9	74	73	2.0029455902709
9	75	74	1.4663345211208
9	76	75	0.973
9	77	76	0.973
9	78	77	2.0711335261948
9	79	78	6.4152831024102
9	80	79	7.8881081638602
9	81	80	8.7525284671264
9	82	81	1.815189301835
9	83	82	2.1926999225795
9	84	83	2.0363789456198
9	85	84	2.2022797105907
9	86	85	1.6943401481553
9	87	86	2.3980130110749
9	88	87	1.9363832529257
9	89	88	2.1682681767827
9	90	89	1.6918937064968
9	91	90	2.1131931668759
9	92	91	2.2104031609639
9	93	92	1.7227981158715
9	94	93	2.1979337916806
9	95	94	2.0197021153789
9	96	95	2.0391171435245
9	97	96	2.2261991945464
9	98	97	1.7515996111392
9	99	98	2.2995223407801
9	100	99	1.8008227620704
9	101	100	2.1857101524767
9	102	101	1.9087755896745
9	103	102	2.0627447358658
9	104	103	1.9851118107104
9	105	104	2.1093420628985
9	106	105	2.2129857683168
9	107	106	1.8308220216017
9	108	107	2.1444722311404
9	109	108	2.0355784928867
9	110	109	2.0225109202385
9	111	110	1.8904941269999
9	112	111	1.9609544694714
9	113	112	2.1225900669388
9	114	113	1.8719619172019
9	115	114	2.2944565722334
9	116	115	2.1139814038152
9	117	116	2.0497258004765
9	118	117	1.8214044611061
9	119	118	2.1974299774128
9	120	119	2.0587102346889
9	121	120	1.7775142086521
9	123	121	2.1897334323985
9	124	122	1.4511143115378
9	125	123	0.973
9	126	124	6.6737161747454
9	127	125	8.111890265462
9	128	126	2.0898004491778
9	129	127	2.4073844446733
9	130	128	1.691572710787
9	131	129	1.9993895224701
9	132	130	2.0034887449264
9	133	131	2.3669454108717
9	134	132	1.6754948373422
9	316	133	2.3071428409499
9	317	134	1.9739816777468
9	3426	135	2.094047818754
9	3427	136	1.8814111623109
9	9473	137	2.2298577564712
9	9474	138	2.1244586765586
9	14850	139	1.6573921910291
9	14851	140	2.1458777089109
9	15313	141	2.078762651173
9	15314	142	1.8324308710582
9	15315	143	2.2317974577264
9	15316	144	2.2036857929114
9	15317	145	1.762455202606
9	15318	146	2.2234368853922
9	15319	147	1.8695111316073
9	15320	148	2.0783441846229
9	15321	149	2.094916143284
9	15322	150	2.1281560893429
9	15324	151	1.7562791760802
9	15325	152	1.9909162058012
9	15326	153	2.3803884772157
9	15327	154	1.7501492674066
9	15328	155	1.9644671278638
9	15329	156	2.2036106661544
9	15330	157	1.8776340407662
9	15331	158	2.3083950479747
9	15332	159	2.1067910894332
9	15333	160	1.6464136143976
9	15334	161	2.2280259437173
9	15335	162	1.9552885333708
9	15336	163	1.9343227959222
9	15337	164	2.0499981702324
9	15338	165	1.9801121542364
9	15339	166	2.0938355118041
9	15340	167	2.3303734606812
9	15341	168	2.0916040606189
9	15342	169	1.701532889301
9	15343	170	2.2574366404379
9	15345	171	1.9773542586319
9	15346	172	2.0215434290082
9	15347	173	1.7924395428896
9	15348	174	2.2253852463676
9	15349	175	1.8362258592724
9	15350	176	2.2066055821397
9	15351	177	2.0336604013093
9	15352	178	1.9457897907261
9	15353	179	2.1897500599023
9	15354	180	1.8674723859186
9	15356	181	2.3182547837448
9	15357	182	1.7904650281052
9	15358	183	2.3221217603267
9	15359	184	1.6426811423686
9	15360	185	2.1446664275595
9	15361	186	2.0787792697565
9	15362	187	1.862588862687
9	15363	188	2.1081305773722
9	15364	189	1.9438009783933
9	15365	190	2.0277192497862
9	15366	191	2.2801997576572
9	15367	192	1.8138108008132
9	15368	193	2.1906032859458
9	15369	194	1.9856379968827
9	15370	195	1.9118912300907
9	15371	196	2.1530080440053
9	15372	197	2.031014646336
9	15373	198	2.2205489328096
9	15374	199	1.7275929678902
9	15375	200	2.3741406745206
10	8	7	2414.8848622198
10	9	8	2412.0691307599
10	10	9	2407.3819784434
10	11	10	2402.4639103656
10	12	11	2396.2016479742
10	13	12	2388.5021761758
10	14	13	2379.5347220144
10	15	14	2369.7521497252
10	16	15	2359.9648396304
10	17	16	2350.1637192596
10	18	17	2340.717056727
10	19	18	2334.4889366638
10	20	19	2338.0188398167
10	21	20	2348.6970945761
10	22	21	2359.0578910074
10	23	22	2372.1753142256
10	24	23	2385.9847009928
10	25	24	2399.0560799135
10	26	25	2411.469456295
10	27	26	2420.8240344936
10	28	27	2428.2511095385
10	29	28	2431.5096723901
10	30	29	2433.2168502312
10	31	30	2435.2011956087
10	32	31	2437.29147981
10	33	32	2438.672857787
10	34	33	2439.5458305131
10	35	34	2440.5569901068
10	36	35	2441.5662171456
10	37	36	2442.5764760413
10	38	37	2443.5864360537
10	39	38	2444.5969193554
10	40	39	2445.6077267987
10	41	40	2446.6171177449
10	42	41	2447.6285385494
10	43	42	2448.6389437378
10	44	43	2449.6489775468
10	45	44	2450.659299592
10	46	45	2449.5461587089
10	47	46	2448.4337074455
10	48	47	2447.3207898499
10	49	48	2446.207873206
10	50	49	2445.0940501215
10	51	50	2443.9833638043
10	52	51	2442.8694501355
10	53	52	2441.7571938549
10	54	53	2440.6460889142
10	55	54	2439.6824932018
10	56	55	2438.741084579
10	57	56	2437.8178922307
10	58	57	2432.628875918
10	59	58	2422.099758557
10	60	59	2408.9617932498
10	61	60	2395.0275024913
10	62	61	2381.1194986589
10	63	62	2367.2108877165
10	64	63	2353.2913366285
10	65	64	2339.3363710896
10	66	65	2325.3913249692
10	67	66	2311.4476897647
10	68	67	2297.4983647275
10	69	68	2283.5801531249
10	70	69	2269.6389171832
10	71	70	2255.7127677456
10	72	71	2241.8359768615
10	73	72	2228.0496562888
10	74	73	2214.3204117303
10	75	74	2201.1356404887
10	76	75	2187.9527212165
10	77	76	2175.0638567568
10	78	77	2163.8270147669
10	79	78	2153.0802669595
10	80	79	2145.0715277719
10	81	80	2138.8791204049
10	82	81	2132.1538470712
10	83	82	2124.1794652122
10	84	83	2114.9682953636
10	85	84	2105.4503674875
10	86	85	2095.9174355941
10	87	86	2086.3855086367
10	88	87	2076.854366392
10	89	88	2067.3279705069
10	90	89	2057.7989259652
10	91	90	2048.2657166205
10	92	91	2038.283265963
10	93	92	2028.2931978384
10	94	93	2018.3027401837
10	95	94	2008.3179219114
10	96	95	1998.3240517773
10	97	96	1988.3419555381
10	98	97	1978.344027573
10	99	98	1968.3550932935
10	100	99	1958.3543494703
10	101	100	1948.3578532202
10	102	101	1938.3583427321
10	103	102	1928.618618476
10	104	103	1918.8845092345
10	105	104	1909.1398994639
10	106	105	1899.4163005566
10	107	106	1889.6917406092
10	108	107	1879.9546263734
10	109	108	1870.2146439165
10	110	109	1860.4817766254
10	111	110	1850.7588696732
10	112	111	1841.0270894129
10	113	112	1831.0817296832
10	114	113	1820.9827286402
10	115	114	1810.8857373192
10	116	115	1800.9095892153
10	117	116	1790.9641635513
10	118	117	1781.0157404179
10	119	118	1771.0520895839
10	120	119	1761.0958624202
10	121	120	1751.1472190667
10	123	121	1741.1866997886
10	124	122	1731.2337222014
10	125	123	1721.2648128434
10	126	124	1711.2935267469
10	127	125	1701.437104465
10	128	126	1691.0517040374
10	129	127	1683.3163553175
10	130	128	1674.3055752548
10	131	129	1664.3665101172
10	132	130	1654.4203300874
10	133	131	1644.4804603653
10	134	132	1634.5312484587
10	316	133	1624.5722138276
10	317	134	1617.0071936001
10	3426	135	1607.1838377831
10	3427	136	1597.363089393
10	9473	137	1587.54199729
10	9474	138	1577.7159492099
10	14850	139	1567.9137743491
10	14851	140	1557.9191970939
10	15313	141	1547.3579521715
10	15314	142	1536.7997634374
10	15315	143	1526.2460752741
10	15316	144	1515.6851181806
10	15317	145	1505.1435764427
10	15318	146	1493.7735317945
10	15319	147	1482.3647866325
10	15320	148	1470.9523913567
10	15321	149	1459.5304822973
10	15322	150	1448.0891680805
10	15324	151	1435.4512220967
10	15325	152	1422.7851859528
10	15326	153	1410.1664848955
10	15327	154	1397.2952780285
10	15328	155	1383.9995094922
10	15329	156	1370.673109471
10	15330	157	1357.3836341788
10	15331	158	1343.5817860535
10	15332	159	1329.8607927453
10	15333	160	1316.2467449033
10	15334	161	1302.512361662
10	15335	162	1288.7956385954
10	15336	163	1275.0120601126
10	15337	164	1261.2227576283
10	15338	165	1247.3616782688
10	15339	166	1233.506094018
10	15340	167	1219.6524772543
10	15341	168	1205.8084237707
10	15342	169	1191.9539103498
10	15343	170	1178.0833249472
10	15345	171	1164.2205973407
10	15346	172	1150.3645759439
10	15347	173	1136.5073919782
10	15348	174	1122.6452208111
10	15349	175	1108.7549348599
10	15350	176	1094.8540025774
10	15351	177	1080.9512242243
10	15352	178	1067.0592234288
10	15353	179	1053.1744370495
10	15354	180	1039.3115695436
10	15356	181	1025.4415703191
10	15357	182	1011.5584112861
10	15358	183	997.67605637631
10	15359	184	983.78421914473
10	15360	185	969.90042426309
10	15361	186	956.01819795335
10	15362	187	942.14946049335
10	15363	188	928.29669077124
10	15364	189	914.42768898699
10	15365	190	900.56255958823
10	15366	191	886.67173306551
10	15367	192	872.78937981534
10	15368	193	858.89620852459
10	15369	194	845.02325598511
10	15370	195	831.1048324554
10	15371	196	817.20055318298
10	15372	197	803.36479729204
10	15373	198	789.58723009017
10	15374	199	775.80010048696
10	15375	200	762.00247732666
11	8	7	1578.4476927174
11	9	8	1579.4816146148
11	10	9	1581.3305685576
11	11	10	1586.311893981
11	12	11	1592.6547030602
11	13	12	1600.4532072712
11	14	13	1609.5360029312
11	15	14	1619.4444009606
11	16	15	1629.3575977338
11	17	16	1639.2847824143
11	18	17	1649.4765304932
11	19	18	1661.4854336744
11	20	19	1673.8446300924
11	21	20	1682.7957309801
11	22	21	1692.1393567109
11	23	22	1695.6439150097
11	24	23	1697.4374776948
11	25	24	1698.6863156371
11	26	25	1699.860083269
11	27	26	1700.7446211064
11	28	27	1701.4003788568
11	29	28	1709.757081449
11	30	29	1720.9911797
11	31	30	1734.0491812732
11	32	31	1747.8043141738
11	33	32	1761.6824669717
11	34	33	1775.5982529195
11	35	34	1789.5036912933
11	36	35	1803.3825532272
11	37	36	1817.2756052278
11	38	37	1831.1645469936
11	39	38	1845.0606850199
11	40	39	1858.9612806309
11	41	40	1872.8423966132
11	42	41	1886.7514271513
11	43	42	1900.646490965
11	44	43	1914.536447579
11	45	44	1928.4487420022
11	46	45	1942.3421864314
11	47	46	1956.2270235084
11	48	47	1970.117681019
11	49	48	1984.0083266487
11	50	49	1997.9102858361
[...]
286	15371	196	1700.8361222344
286	15372	197	1701.8085467946
286	15373	198	1710.5643457631
286	15374	199	1721.7921083942
286	15375	200	1733.8970684614
287	15347	173	4.0631847788148
287	15348	174	5.9995412563473
287	15349	175	7.8533518519589
287	15350	176	9.9694589482608
287	15351	177	11.866154085145
287	15352	178	12.128184944274
287	15353	179	11.54381212377
287	15354	180	10.968945760394
287	15356	181	10.552960455774
287	15357	182	10.29578888041
287	15358	183	10.021233982112
287	15359	184	9.775235105508
287	15360	185	9.7930993506867
287	15361	186	9.6837706088657
287	15362	187	9.6924437378366
287	15363	188	9.6043684989719
287	15364	189	9.4543012688619
287	15365	190	9.4583659111404
287	15366	191	9.4647732640959
287	15367	192	9.4907953627826
287	15368	193	9.5116839486221
287	15369	194	8.4909047790583
287	15370	195	8.118932065045
287	15371	196	6.7475681713478
287	15372	197	8.3597206377027
287	15373	198	10.218932612389
287	15374	199	12.279334492467
287	15375	200	12.170234849087
288	15348	174	1.9363564775325
288	15349	175	1.8538105956116
288	15350	176	2.1161070963019
288	15351	177	1.8966951368842
288	15352	178	0.26203085912908
288	15353	179	-0.5843728205043
288	15354	180	-0.57486636337576
288	15356	181	-0.41598530462031
288	15357	182	-0.25717157536398
288	15358	183	-0.27455489829773
288	15359	184	-0.24599887660402
288	15360	185	0.017864245178705
288	15361	186	-0.10932874182092
288	15362	187	0.0086731289708588
288	15363	188	-0.088075238864702
288	15364	189	-0.15006723010998
288	15365	190	0.0040646422785215
288	15366	191	0.0064073529554616
288	15367	192	0.02602209868674
288	15368	193	0.020888585839465
288	15369	194	-1.0207791695638
288	15370	195	-0.37197271401337
288	15371	196	-1.3713638936971
288	15372	197	1.6121524663549
288	15373	198	1.8592119746865
288	15374	199	2.0604018800776
288	15375	200	-0.10909964337925
289	15348	174	4.2191245201102
289	15349	175	5.0422190845387
289	15350	176	6.7667044788304
289	15351	177	7.2608327506901
289	15352	178	2.6257528006896
289	15353	179	0.973
289	15354	180	0.973
289	15356	181	0.973
289	15357	182	0.973
289	15358	183	0.973
289	15359	184	0.973
289	15360	185	1.7113439007339
289	15361	186	1.4058841331689
289	15362	187	1.6819376927449
289	15363	188	1.4512936844218
289	15364	189	1.3022151535761
289	15365	190	1.6537033510206
289	15366	191	1.6595214296262
289	15367	192	1.7063291806616
289	15368	193	1.6962228055406
289	15369	194	0.973
289	15370	195	0.973
289	15371	196	0.973
289	15372	197	4.8152341356575
289	15373	198	6.2803394326337
289	15374	199	7.9707825904339
289	15375	200	1.5436211875153
290	15349	175	2414.8507656208
290	15350	176	2411.9166085786
290	15351	177	2407.311591176
290	15352	178	2402.3521297106
290	15353	179	2395.9970766972
290	15354	180	2388.3161530445
290	15356	181	2379.3232352471
290	15357	182	2370.1374710435
290	15358	183	2360.9389348873
290	15359	184	2351.8163392271
290	15360	185	2343.1930301703
290	15361	186	2336.0355387129
290	15362	187	2333.8774558723
290	15363	188	2339.1641271479
290	15364	189	2347.1115963634
290	15365	190	2354.6225551171
290	15366	191	2362.2780098333
290	15367	192	2371.9891933666
290	15368	193	2381.5805700473
290	15369	194	2391.1132169872
290	15370	195	2399.5087160359
290	15371	196	2407.9450911417
290	15372	197	2415.6366251304
290	15373	198	2423.2033931224
290	15374	199	2430.2795476732
290	15375	200	2431.9358682305
291	15349	175	1578.4602128109
291	15350	176	1579.5376199633
291	15351	177	1581.4018611619
291	15352	178	1586.4251123844
291	15353	179	1592.8619055804
291	15354	180	1600.6416230751
291	15356	181	1609.7502098912
291	15357	182	1619.0541235488
291	15358	183	1628.3709734352
291	15359	184	1637.6109060617
291	15360	185	1646.3451301428
291	15361	186	1655.4696021928
291	15362	187	1666.1660418119
291	15363	188	1674.7695184872
291	15364	189	1681.3658889802
291	15365	190	1688.1394597124
291	15366	191	1694.1645805817
291	15367	192	1695.6160958195
291	15368	193	1696.9132878277
291	15369	194	1697.9352649059
291	15370	195	1698.7291154051
291	15371	196	1699.5268310085
291	15372	197	1700.2541169105
291	15373	198	1700.9309982657
291	15374	199	1702.9976784429
291	15375	200	1712.5616667885
292	15350	176	3.902580489948
292	15351	177	5.8199849037766
292	15352	178	8.0625432261858
292	15353	179	9.8568281443823
292	15354	180	11.866019668373
292	15356	181	13.105884790412
292	15357	182	13.041504885508
292	15358	183	13.041884611953
292	15359	184	12.729845704138
292	15360	185	11.93487126432
292	15361	186	11.298356758288
292	15362	187	10.820840938663
292	15363	188	10.397325542933
292	15364	189	10.295039897953
292	15365	190	10.071865918369
292	15366	191	9.8106873925922
292	15367	192	9.7318508577438
292	15368	193	9.6013316248919
292	15369	194	9.2310568946101
292	15370	195	8.5280733820177
292	15371	196	7.8322771497192
292	15372	197	8.2286806610512
292	15373	198	6.458023102139
292	15374	199	8.6567788312979
292	15375	200	10.522360694583
293	15351	177	1.9174044138286
293	15352	178	2.2425583224092
293	15353	179	1.7942849181965
293	15354	180	2.0091915239906
293	15356	181	1.2398651220391
293	15357	182	-0.064379904903472
293	15358	183	0.0003797264443719
293	15359	184	-0.31203890781473
293	15360	185	-0.79497443981854
293	15361	186	-0.63651450603198
293	15362	187	-0.47751581962503
293	15363	188	-0.42351539572927
293	15364	189	-0.10228564498075
293	15365	190	-0.2231739795833
293	15366	191	-0.26117852577701
293	15367	192	-0.078836534848447
293	15368	193	-0.1305192328519
293	15369	194	-0.37027473028175
293	15370	195	-0.70298351259239
293	15371	196	-0.69579623229847
293	15372	197	0.39640351133194
293	15373	198	-1.7706575589122
293	15374	199	2.1987557291589
293	15375	200	1.865581863285
294	15351	177	4.0983500623511
294	15352	178	5.9048074223586
294	15353	179	5.9362768872955
294	15354	180	7.5824667052674
294	15356	181	5.8663206102323
294	15357	182	1.7416825211443
294	15358	183	1.9452584677808
294	15359	184	0.973
294	15360	185	0.973
294	15361	186	0.973
294	15362	187	0.973
294	15363	188	0.973
294	15364	189	1.4536504713745
294	15365	190	0.973
294	15366	191	0.973
294	15367	192	1.479708139989
294	15368	193	1.3529219904265
294	15369	194	0.973
294	15370	195	0.973
294	15371	196	0.973
294	15372	197	2.3445352152428
294	15373	198	0.973
294	15374	199	6.1747608837957
294	15375	200	6.4561318428174
295	15352	178	2414.845651646
295	15353	179	2411.8052859687
295	15354	180	2407.1980541121
295	15356	181	2402.4702562084
295	15357	182	2396.4284617362
295	15358	183	2389.1494465446
295	15359	184	2380.5461009459
295	15360	185	2371.6687005891
295	15361	186	2362.814266327
295	15362	187	2353.9496157488
295	15363	188	2345.0791371617
295	15364	189	2337.062536558
295	15365	190	2333.8823984745
295	15366	191	2340.6132726665
295	15367	192	2350.1905279779
295	15368	193	2359.4393684599
295	15369	194	2370.5113123585
295	15370	195	2380.8928870128
295	15371	196	2390.8086214238
295	15372	197	2399.7596206627
295	15373	198	2408.4459019774
295	15374	199	2416.6093028836
295	15375	200	2423.9726405257
296	15352	178	1578.4620906357
296	15353	179	1579.5784970447
296	15354	180	1581.5168585666
296	15356	181	1586.3054665159
296	15357	182	1592.4249719661
296	15358	183	1599.7976115588
296	15359	184	1608.5116154067
296	15360	185	1617.5031989701
296	15361	186	1626.4715210432
296	15362	187	1635.4501908366
296	15363	188	1644.4347636001
296	15364	189	1654.1548851067
296	15365	190	1666.0960216122
296	15366	191	1675.9397906419
296	15367	192	1684.1425466286
296	15368	193	1692.483382633
296	15369	194	1695.395199284
296	15370	195	1696.8314381996
296	15371	196	1697.9064633613
296	15372	197	1698.7528401129
296	15373	198	1699.5741860177
296	15374	199	1700.3460900877
296	15375	200	1700.9755426589
297	15353	179	4.0885431242836
297	15354	180	5.8312335044108
297	15356	181	7.6018188300225
297	15357	182	9.4338875167453
297	15358	183	11.167156285977
297	15359	184	12.651966990961
297	15360	185	12.664891141646
297	15361	186	12.610116668281
297	15362	187	12.594501812467
297	15363	188	12.59296224195
297	15364	189	12.593820524497
297	15365	190	12.665210515759
297	15366	191	12.579893544209
297	15367	192	12.635504406986
297	15368	193	12.14153005705
297	15369	194	11.303976844649
297	15370	195	10.089838226906
297	15371	196	9.473132940067
297	15372	197	9.1271368431913
297	15373	198	7.6999934161406
297	15374	199	8.7275869703751
297	15375	200	6.6333504663694
298	15354	180	1.7426903801272
298	15356	181	1.7705853256118
298	15357	182	1.8320686867228
298	15358	183	1.7332687692321
298	15359	184	1.4848107049838
298	15360	185	0.012924150684849
298	15361	186	-0.054774473365397
298	15362	187	-0.015614855813329
298	15363	188	-0.0015395705169059
298	15364	189	0.00085828254697873
298	15365	190	0.07138999126153
298	15366	191	-0.085316971549764
298	15367	192	0.055610862777103
298	15368	193	-0.4939743499366
298	15369	194	-0.83755321240026
298	15370	195	-1.2141386177431
298	15371	196	-0.61670528683925
298	15372	197	-0.34599609687574
298	15373	198	-1.4271434270507
298	15374	199	1.0275935542345
298	15375	200	-2.0942365040057
299	15354	180	3.8586660115823
299	15356	181	4.7610731706013
299	15357	182	5.807982688318
299	15358	183	6.4420705186075
299	15359	184	6.4347913025501
299	15360	185	1.9480642603649
299	15361	186	1.7370882829465
299	15362	187	1.85471407652
299	15363	188	1.8972950685894
299	15364	189	1.9046516265837
299	15365	190	2.1265510642023
299	15366	191	1.6421032227083
299	15367	192	2.075239547142
299	15368	193	0.973
299	15369	194	0.973
299	15370	195	0.973
299	15371	196	0.973
299	15372	197	0.973
299	15373	198	0.973
299	15374	199	3.7538183989252
299	15375	200	0.973
300	15356	181	2414.8458276661
300	15357	182	2411.9446482578
300	15358	183	2407.3135280587
300	15359	184	2402.4812466792
300	15360	185	2396.3747360548
300	15361	186	2388.9841917993
300	15362	187	2381.1001986676
300	15363	188	2373.2299067961
300	15364	189	2365.3473441999
300	15365	190	2357.4688826787
300	15366	191	2349.5920035493
300	15367	192	2341.8762812882
300	15368	193	2335.2462161097
300	15369	194	2333.981153629
300	15370	195	2341.0355906942
300	15371	196	2349.5514050599
300	15372	197	2357.8767327885
300	15373	198	2367.899912974
300	15374	199	2378.9978931909
300	15375	200	2390.1671210657
301	15356	181	1578.4620260019
301	15357	182	1579.5273239398
301	15358	183	1581.3998993672
301	15359	184	1586.2943346836
301	15360	185	1592.4793886803
301	15361	186	1599.9649918498
301	15362	187	1607.9503907505
301	15363	188	1615.9219121626
301	15364	189	1623.9058621284
301	15365	190	1631.8856582697
301	15366	191	1639.8638516665
301	15367	192	1647.992542631
301	15368	193	1656.9248029822
301	15369	194	1668.0021744473
301	15370	195	1676.280837846
301	15371	196	1683.566169573
301	15372	197	1691.0741586443
301	15373	198	1695.0048775496
301	15374	199	1696.605891645
301	15375	200	1697.8458052184
302	15357	182	3.9269539870051
302	15358	183	5.8002674975325
302	15359	184	7.7127356081488
302	15360	185	9.5175946492571
302	15361	186	11.172047769621
302	15362	187	11.222112760931
302	15363	188	11.237110601808
302	15364	189	11.223014450733
302	15365	190	11.224865988666
302	15366	191	11.252537847912
302	15367	192	11.219138078341
302	15368	193	11.200181706716
302	15369	194	11.21318813925
302	15370	195	11.267530744514
302	15371	196	11.217757882288
302	15372	197	11.176177458885
302	15373	198	11.213714334495
302	15374	199	11.275107899942
302	15375	200	11.213409696108
303	15358	183	1.8733135105274
303	15359	184	1.9124681106163
303	15360	185	1.8048590411083
303	15361	186	1.654453120364
303	15362	187	0.050064991309773
303	15363	188	0.014997840877621
303	15364	189	-0.01409615107579
303	15365	190	0.0018515379331063
303	15366	191	0.027671859245748
303	15367	192	-0.033399769570678
303	15368	193	-0.018956371624954
303	15369	194	0.01300643253373
303	15370	195	0.054342605264392
303	15371	196	-0.049772862226236
303	15372	197	-0.041580423403067
303	15373	198	0.03753687561024
303	15374	199	0.061393565447071
303	15375	200	-0.06169820383424
304	15358	183	4.0264700178169
304	15359	184	5.0792829595244
304	15360	185	5.7886509309795
304	15361	186	6.232310610482
304	15362	187	1.9173128715772
304	15363	188	1.8237745913161
304	15364	189	1.7438590971807
304	15365	190	1.7871483396851
304	15366	191	1.8594853617298
304	15367	192	1.691356643062
304	15368	193	1.7289208891964
304	15369	194	1.8163171853456
304	15370	195	1.9332591631237
304	15371	196	1.6469887099249
304	15372	197	1.6661029127368
304	15373	198	1.8826562038765
304	15374	199	1.9531502788025
304	15375	200	1.6144521080347
305	15359	184	2414.8659803072
305	15360	185	2411.8497403887
305	15361	186	2407.19367617
305	15362	187	2402.2546455382
305	15363	188	2395.9417766988
305	15364	189	2388.3377681752
305	15365	190	2379.5936033784
305	15366	191	2370.5813471138
305	15367	192	2361.5634380431
305	15368	193	2352.547527067
305	15369	194	2343.5301164456
305	15370	195	2335.5804369914
305	15371	196	2334.0805150606
305	15372	197	2342.5413444623
305	15373	198	2351.7319185984
305	15374	199	2360.6117634134
305	15375	200	2372.1234599092
306	15359	184	1578.4546260573
306	15360	185	1579.5621736133
306	15361	186	1581.5212928187
306	15362	187	1586.5238504214
306	15363	188	1592.9179168604
306	15364	189	1600.6197299259
306	15365	190	1609.4763642214
306	15366	191	1618.6045382405
306	15367	192	1627.7384377737
306	15368	193	1636.8703135122
306	15369	194	1646.0037081847
306	15370	195	1656.0522032296
306	15371	196	1668.6324098129
306	15372	197	1677.4968245663
306	15373	198	1685.5326112974
306	15374	199	1693.5406777672
306	15375	200	1695.6361644277
307	15360	185	4.0831189165961
307	15361	186	6.0231934725328
307	15362	187	7.891952440331
307	15363	188	9.8740337577506
307	15364	189	11.514586912945
307	15365	190	12.886969563944
307	15366	191	12.775254835197
307	15367	192	12.852036737073
307	15368	193	12.843793071836
307	15369	194	12.83389829935
307	15370	195	12.778866284943
307	15371	196	12.71277148801
307	15372	197	12.446613341648
307	15373	198	12.147339675345
307	15374	199	11.858584741951
307	15375	200	11.694642440749
308	15361	186	1.9400745559367
308	15362	187	1.8687589677982
308	15363	188	1.9820813174197
308	15364	189	1.6405531551945
308	15365	190	1.3723826509992
308	15366	191	-0.11171472874703
308	15367	192	0.076781901875512
308	15368	193	-0.008243665236515
308	15369	194	-0.0098947724862946
308	15370	195	-0.055032014406752
308	15371	196	-0.066094796933317
308	15372	197	-0.2661581463622
308	15373	198	-0.29927366630238
308	15374	199	-0.28875493339473
308	15375	200	-0.16394230120136
309	15361	186	4.2369370870102
309	15362	187	5.0904209387123
309	15363	188	6.3918992915099
309	15364	189	6.3590560555307
309	15365	190	6.1916664847361
309	15366	191	1.5749380613208
309	15367	192	2.1639069288264
309	15368	193	1.8997953496367
309	15369	194	1.8937788457915
309	15370	195	1.7497445795536
309	15371	196	1.7105630956267
309	15372	197	0.973
309	15373	198	0.973
309	15374	199	0.973
309	15375	200	1.3598451795247
310	15362	187	2414.8757513213
310	15363	188	2412.0361360551
310	15364	189	2407.4214051443
310	15365	190	2402.5966667971
310	15366	191	2396.4300143193
310	15367	192	2388.9036915726
310	15368	193	2380.0020954288
310	15369	194	2370.6426547997
310	15370	195	2361.262512156
310	15371	196	2351.9047702637
310	15372	197	2342.6055761403
310	15373	198	2335.0945354523
310	15374	199	2334.9618278013
310	15375	200	2345.0479686182
311	15362	187	1578.451038192
311	15363	188	1579.493730098
311	15364	189	1581.2906347411
311	15365	190	1586.1774300048
311	15366	191	1592.423399413
311	15367	192	1600.0465274891
311	15368	193	1609.0626180507
311	15369	194	1618.5424420005
311	15370	195	1628.0432342403
311	15371	196	1637.5213376042
311	15372	197	1647.0589317121
311	15373	198	1657.8382827621
311	15374	199	1670.8622733187
311	15375	200	1679.5210743137
312	15363	188	3.8804163187024
312	15364	189	5.817040498874
312	15365	190	7.6459528622034
312	15366	191	9.6906429893596
312	15367	192	11.606719386445
312	15368	193	13.368600510827
312	15369	194	13.28201728723
312	15370	195	13.353291114026
312	15371	196	13.328873075738
312	15372	197	13.383455119096
312	15373	198	13.297745379687
312	15374	199	13.32958400463
312	15375	200	13.379050940173
313	15364	189	1.9366241801716
313	15365	190	1.8289123633294
313	15366	191	2.0446901271562
313	15367	192	1.9160763970856
313	15368	193	1.7618811243817
313	15369	194	-0.086583223596682
313	15370	195	0.071273826796096
313	15371	196	-0.024418038288131
313	15372	197	0.054582043357659
313	15373	198	-0.085709739408921
313	15374	199	0.031838624943047
313	15375	200	0.049466935542878
314	15364	189	4.1237641255823
314	15365	190	4.8902233506552
314	15366	191	6.4368058243494
314	15367	192	7.1740387051116
314	15368	193	7.6521018786507
314	15369	194	1.6900281460165
314	15370	195	2.2034890686141
314	15371	196	1.8933002705452
314	15372	197	2.1531183815004
314	15373	198	1.6940278431987
314	15374	199	2.0740859654476
314	15375	200	2.1361365348916
315	15365	190	2414.8650613014
315	15366	191	2411.8313019879
315	15367	192	2407.124552844
315	15368	193	2401.9996624849
315	15369	194	2395.3239562415
315	15370	195	2387.2831514617
315	15371	196	2377.919520708
315	15372	197	2368.3464164902
315	15373	198	2358.789245158
315	15374	199	2349.2414220867
315	15375	200	2340.1033399801
316	15365	190	1578.4549635118
316	15366	191	1579.5689440984
316	15367	192	1581.5913052252
316	15368	193	1586.7821131265
316	15369	194	1593.5436838698
316	15370	195	1601.687911367
316	15371	196	1611.1719793361
316	15372	197	1620.8682150664
316	15373	198	1630.5483129788
316	15374	199	1640.2189423898
316	15375	200	1650.2621834502
317	15366	191	4.1349495721361
317	15367	192	6.0716839491981
317	15368	193	8.3020552311358
317	15369	194	10.400064024849
317	15370	195	12.427143237808
317	15371	196	13.539558347476
317	15372	197	13.545396598827
317	15373	198	13.618747223339
317	15374	199	13.603274421499
317	15375	200	13.586088463225
318	15367	192	1.9367343770619
318	15368	193	2.2303712819377
318	15369	194	2.0980087937135
318	15370	195	2.0270792129589
318	15371	196	1.1124151096677
318	15372	197	0.0058382513513795
318	15373	198	0.073350624511949
318	15374	199	-0.015472801839932
318	15375	200	-0.01718595827464
319	15367	192	4.2575522418093
319	15368	193	6.0258678371106
319	15369	194	6.9740962970096
319	15370	195	7.9577600550767
319	15371	196	5.6222866984587
319	15372	197	2.012075860777
319	15373	198	2.2410510777876
319	15374	199	1.9480389852312
319	15375	200	1.9407844726519
320	15368	193	2414.8548644851
320	15369	194	2411.680870802
320	15370	195	2406.7494759384
320	15371	196	2401.5163988242
320	15372	197	2394.8248928592
320	15373	198	2386.8123283826
320	15374	199	2377.473866021
320	15375	200	2367.6814751487
321	15368	193	1578.4587077294
321	15369	194	1579.624181645
321	15370	195	1581.9712064583
321	15371	196	1587.2715926375
321	15372	197	1594.0491663218
321	15373	198	1602.164790283
321	15374	199	1611.623366138
321	15375	200	1621.5417090394
322	15369	194	4.3785919786299
322	15370	195	6.4091077215372
322	15371	196	8.4315614050519
322	15372	197	10.39082506989
322	15373	198	12.274772594588
322	15374	199	13.883126223891
322	15375	200	13.918090396861
323	15370	195	2.0305157429073
323	15371	196	2.0224536835146
323	15372	197	1.9592636648379
323	15373	198	1.8839475246984
323	15374	199	1.6083536293023
323	15375	200	0.034964172970504
324	15370	195	4.57981984376
324	15371	196	5.6817499750027
324	15372	197	6.6212585086741
324	15373	198	7.4461158869208
324	15374	199	7.4081973888047
324	15375	200	2.147751997247
325	15371	196	2414.8769683659
325	15372	197	2412.0564856079
325	15373	198	2407.4676977313
325	15374	199	2402.663560528
325	15375	200	2396.5274205491
326	15371	196	1578.4505912997
326	15372	197	1579.4862578483
326	15373	198	1581.2437467277
326	15374	199	1586.1096758712
326	15375	200	1592.3247403214
327	15372	197	3.8481264791193
327	15373	198	5.8155300119843
327	15374	199	7.6658310651567
327	15375	200	9.5357295588867
328	15373	198	1.967403532865
328	15374	199	1.8503010531724
328	15375	200	1.86989849373
329	15373	198	4.166110692362
329	15374	199	4.9397817067217
329	15375	200	5.947337921837
330	15374	199	2414.8293824452
330	15375	200	2411.7653542396
331	15374	199	1578.4680646015
331	15375	200	1579.5931597669
332	15375	200	4.1270271831314

