version 2
run Attack-0-20240803-14:37:57-10921
attr configname Attack
attr datetime 20240803-14:37:57
attr experiment Attack
attr inifile omnetpp.ini
attr iterationvars ""
attr iterationvarsf ""
attr measurement ""
attr network RSUExampleScenario
attr processid 10921
attr repetition 0
attr replication #0
attr resultdir results
attr runnumber 0
attr seedset 0
param *.node[5].numAttackPackets 1000
param *.node[5].attackInterval 0.01s
param **.car[*].pdrSignal.statistics true
param **.car[*].delaySignal.statistics true
param **.car[*].throughputSignal.statistics true
param **.car[*].collisionRateSignal.statistics true
param **.node[*].pdrSignal.statistics true
param **.node[*].delaySignal.statistics true
param **.node[*].throughputSignal.statistics true
param **.node[*].collisionRateSignal.statistics true
param **.rsu[*].pdrSignal.statistics true
param **.rsu[*].delaySignal.statistics true
param **.rsu[*].throughputSignal.statistics true
param **.rsu[*].collisionRateSignal.statistics true
param *.playgroundSizeX 4705m
param *.playgroundSizeY 3350m
param *.playgroundSizeZ 50m
param *.annotations.draw true
param *.obstacles.obstacles "xmldoc(\"config.xml\", \"//AnalogueModel[@type='SimpleObstacleShadowing']/obstacles\")"
param *.manager.updateInterval 1s
param *.manager.host "\"localhost\""
param *.manager.port 9999
param *.manager.autoShutdown true
param *.manager.launchConfig "xmldoc(\"bristol.launchd.xml\")"
param *.rsu[0].mobility.x 2000
param *.rsu[0].mobility.y 2000
param *.rsu[0].mobility.z 3
param *.rsu[*].applType "\"TraCIDemoRSU11p\""
param *.rsu[*].appl.headerLength "80 bit"
param *.rsu[*].appl.sendBeacons true
param *.rsu[*].appl.dataOnSch false
param *.rsu[*].appl.beaconInterval 1s
param *.rsu[*].appl.beaconUserPriority 7
param *.rsu[*].appl.dataUserPriority 5
param *.rsu[*].nic.phy80211p.antennaOffsetZ "0 m"
param *.rsu[0].appl.psid 42
param *.connectionManager.sendDirect true
param *.connectionManager.maxInterfDist 2600m
param *.connectionManager.drawMaxIntfDist false
param *.**.nic.mac1609_4.useServiceChannel false
param *.**.nic.mac1609_4.txPower 20mW
param *.**.nic.mac1609_4.bitrate 6Mbps
param *.**.nic.phy80211p.minPowerLevel -110dBm
param *.**.nic.phy80211p.useNoiseFloor true
param *.**.nic.phy80211p.noiseFloor -98dBm
param *.**.nic.phy80211p.decider "xmldoc(\"config.xml\")"
param *.**.nic.phy80211p.analogueModels "xmldoc(\"config.xml\")"
param *.**.nic.phy80211p.usePropagationDelay true
param *.**.nic.phy80211p.antenna "xmldoc(\"antenna.xml\", \"/root/Antenna[@id='monopole']\")"
param *.node[*].nic.phy80211p.antennaOffsetY "0 m"
param *.node[*].nic.phy80211p.antennaOffsetZ "1.895 m"
param *.node[*].applType "\"TraCIDoSmo11p\""
param *.node[*].appl.headerLength "80 bit"
param *.node[*].appl.sendBeacons false
param *.node[*].appl.dataOnSch false
param *.node[*].appl.beaconInterval 1s
param *.node[*].veinsmobility.x 0
param *.node[*].veinsmobility.y 0
param *.node[*].veinsmobility.z 0
param *.node[*].veinsmobility.setHostSpeed false
param *.node[*0].veinsmobility.accidentCount 1
param *.node[*0].veinsmobility.accidentStart 120s
param *.node[*0].veinsmobility.accidentDuration 50s

vector 0 RSUExampleScenario.node[0].veinsmobility posx ETV
vector 1 RSUExampleScenario.node[0].veinsmobility posy ETV
vector 2 RSUExampleScenario.node[1].veinsmobility posx ETV
vector 3 RSUExampleScenario.node[1].veinsmobility posy ETV
vector 4 RSUExampleScenario.node[2].veinsmobility posx ETV
vector 5 RSUExampleScenario.node[2].veinsmobility posy ETV
vector 6 RSUExampleScenario.node[3].veinsmobility posx ETV
vector 7 RSUExampleScenario.node[3].veinsmobility posy ETV
vector 8 RSUExampleScenario.node[4].veinsmobility posx ETV
vector 9 RSUExampleScenario.node[4].veinsmobility posy ETV
vector 10 RSUExampleScenario.node[5].veinsmobility posx ETV
vector 11 RSUExampleScenario.node[5].veinsmobility posy ETV
vector 12 RSUExampleScenario.node[6].veinsmobility posx ETV
vector 13 RSUExampleScenario.node[6].veinsmobility posy ETV
vector 14 RSUExampleScenario.node[7].veinsmobility posx ETV
vector 15 RSUExampleScenario.node[7].veinsmobility posy ETV
vector 16 RSUExampleScenario.node[8].veinsmobility posx ETV
vector 17 RSUExampleScenario.node[8].veinsmobility posy ETV
vector 18 RSUExampleScenario.node[9].veinsmobility posx ETV
vector 19 RSUExampleScenario.node[9].veinsmobility posy ETV
vector 20 RSUExampleScenario.node[0].veinsmobility speed ETV
vector 21 RSUExampleScenario.node[1].veinsmobility speed ETV
vector 22 RSUExampleScenario.node[2].veinsmobility speed ETV
vector 23 RSUExampleScenario.node[3].veinsmobility speed ETV
vector 24 RSUExampleScenario.node[4].veinsmobility speed ETV
vector 25 RSUExampleScenario.node[5].veinsmobility speed ETV
vector 26 RSUExampleScenario.node[6].veinsmobility speed ETV
vector 27 RSUExampleScenario.node[7].veinsmobility speed ETV
vector 28 RSUExampleScenario.node[8].veinsmobility speed ETV
vector 29 RSUExampleScenario.node[9].veinsmobility speed ETV
vector 30 RSUExampleScenario.node[10].veinsmobility posx ETV
vector 31 RSUExampleScenario.node[10].veinsmobility posy ETV
vector 32 RSUExampleScenario.node[0].veinsmobility acceleration ETV
vector 33 RSUExampleScenario.node[0].veinsmobility co2emission ETV
vector 34 RSUExampleScenario.node[1].veinsmobility acceleration ETV
vector 35 RSUExampleScenario.node[1].veinsmobility co2emission ETV
vector 36 RSUExampleScenario.node[2].veinsmobility acceleration ETV
vector 37 RSUExampleScenario.node[2].veinsmobility co2emission ETV
vector 38 RSUExampleScenario.node[3].veinsmobility acceleration ETV
vector 39 RSUExampleScenario.node[3].veinsmobility co2emission ETV
vector 40 RSUExampleScenario.node[4].veinsmobility acceleration ETV
vector 41 RSUExampleScenario.node[4].veinsmobility co2emission ETV
vector 42 RSUExampleScenario.node[5].veinsmobility acceleration ETV
vector 43 RSUExampleScenario.node[5].veinsmobility co2emission ETV
vector 44 RSUExampleScenario.node[6].veinsmobility acceleration ETV
vector 45 RSUExampleScenario.node[6].veinsmobility co2emission ETV
vector 46 RSUExampleScenario.node[7].veinsmobility acceleration ETV
vector 47 RSUExampleScenario.node[7].veinsmobility co2emission ETV
vector 48 RSUExampleScenario.node[8].veinsmobility acceleration ETV
vector 49 RSUExampleScenario.node[8].veinsmobility co2emission ETV
vector 50 RSUExampleScenario.node[9].veinsmobility acceleration ETV
vector 51 RSUExampleScenario.node[9].veinsmobility co2emission ETV
vector 52 RSUExampleScenario.node[10].veinsmobility speed ETV
vector 53 RSUExampleScenario.node[10].veinsmobility acceleration ETV
vector 54 RSUExampleScenario.node[10].veinsmobility co2emission ETV
0	11	1	3317.6974435821
0	42	2	3321.1497196999
0	81	3	3323.6499442697
0	113	4	3327.1659082837
0	145	5	3331.6281156821
0	177	6	3336.7107378864
0	209	7	3342.7187646405
0	241	8	3348.2849777959
0	273	9	3354.0003003549
0	305	10	3359.1052263245
1	11	1	555.22007522392
1	42	2	550.37805625736
1	81	3	546.87519277757
1	113	4	541.94925848777
1	145	5	535.69761872569
1	177	6	527.675847684
1	209	7	517.94494832066
1	241	8	505.96667781347
1	273	9	493.3315718225
1	305	10	480.58485239542
2	11	1	3133.5092980678
2	42	2	3131.7773313199
2	81	3	3128.7328707115
2	113	4	3124.5036477287
2	145	5	3119.1111001875
2	177	6	3113.2492223738
2	209	7	3107.3646979841
2	241	8	3101.4774710655
2	273	9	3092.6749615476
2	305	10	3088.5807847997
3	11	1	917.83876565813
3	42	2	917.93070957191
3	81	3	918.09232908568
3	113	4	918.59384553578
3	145	5	919.2634872603
3	177	6	919.99140999776
3	209	7	920.68209209752
3	241	8	920.93001785581
3	273	9	917.60220429615
3	305	10	913.75412560409
4	11	1	739.63611667643
4	42	2	740.34755860859
4	81	3	741.71245871081
4	113	4	743.87763918397
4	145	5	747.59639534144
4	177	6	752.20316753502
4	209	7	757.67054728268
4	241	8	763.62409065719
4	273	9	769.94477432867
4	305	10	776.4579795286
5	11	1	1908.1697892473
5	42	2	1910.4715131454
5	81	3	1914.3790819742
5	113	4	1919.8607690451
5	145	5	1926.3273833786
5	177	6	1933.0271101263
5	209	7	1939.0759751389
5	241	8	1944.6280930396
5	273	9	1949.7537605141
5	305	10	1954.6451413485
6	11	1	1886.6471631102
6	42	2	1879.8388018725
6	81	3	1877.5586419276
6	113	4	1874.2841566279
6	145	5	1865.6754464197
6	177	6	1858.9810965637
6	209	7	1851.3639506649
6	241	8	1843.7106531889
6	273	9	1836.0458801502
6	305	10	1828.3818406642
7	11	1	2656.1954913976
7	42	2	2662.0267620547
7	81	3	2663.9080669232
7	113	4	2666.6097656134
7	145	5	2669.3355813117
7	177	6	2661.7508983722
7	209	7	2653.1206896457
7	241	8	2644.4495212656
7	273	9	2635.7653510995
7	305	10	2627.0820120469
8	11	1	3241.275676909
8	42	2	3242.5221394192
8	81	3	3244.6486959281
8	113	4	3247.6271282797
8	145	5	3251.9520843929
8	177	6	3257.5950891611
8	209	7	3270.6484797354
8	241	8	3278.7218856875
8	273	9	3287.4734618327
8	305	10	3296.577434997
9	11	1	2330.2128008043
9	42	2	2332.0916150269
9	81	3	2335.29700996
9	113	4	2339.7864518947
9	145	5	2345.3632949349
9	177	6	2352.1326775425
9	209	7	2367.5089484738
9	241	8	2376.5631990019
9	273	9	2386.3780111647
9	305	10	2395.8521763811
10	11	1	1551.4637777569
10	42	2	1551.4174881336
10	81	3	1551.3398596412
10	113	4	1551.2305554064
10	145	5	1551.0931630423
10	177	6	1550.9532124573
10	209	7	1550.8132487131
10	241	8	1550.6733168455
10	273	9	1550.5332819797
10	305	10	1550.3933984943
11	11	1	515.63977996976
11	42	2	518.04983423985
11	81	3	522.09153659242
11	113	4	527.78242622951
11	145	5	534.93571523805
11	177	6	542.22219718428
11	209	7	549.50936426433
11	241	8	556.79487169997
11	273	9	564.08574170204
11	305	10	571.36873013743
12	11	1	3384.4538470488
12	42	2	3386.1166151347
12	81	3	3388.9795708112
12	113	4	3392.8335663387
12	145	5	3387.7011794143
12	177	6	3381.6993344021
12	209	7	3366.2004457221
12	241	8	3357.5262146346
12	273	9	3348.8422420784
12	305	10	3340.1481207235
13	11	1	2168.6201787654
13	42	2	2167.4674138553
13	81	3	2165.4825821333
13	113	4	2162.8106816767
13	145	5	2162.3554985405
13	177	6	2166.5164614461
13	209	7	2176.7754125696
13	241	8	2182.2911663601
13	273	9	2187.8131145374
13	305	10	2193.3415161137
14	11	1	891.72117163321
14	42	2	889.52466346458
14	81	3	885.89844926925
14	113	4	880.84555873098
14	145	5	874.27948719986
14	177	6	866.08873331901
14	209	7	856.29013801626
14	241	8	845.37670640292
14	273	9	836.92479034856
14	305	10	831.19145740299
15	11	1	1966.2266842408
15	42	2	1966.7090168825
15	81	3	1967.5052995903
15	113	4	1968.614867074
15	145	5	1970.0567149453
15	177	6	1971.8553278589
15	209	7	1973.6078635381
15	241	8	1975.2493879625
15	273	9	1976.2432122129
15	305	10	1976.8778507242
16	11	1	1500.2811651673
16	42	2	1499.6000040998
16	81	3	1498.4272170983
16	113	4	1496.4464352329
16	145	5	1493.7373085102
16	177	6	1490.4818474629
16	209	7	1487.1893383856
16	241	8	1485.0132609841
16	273	9	1483.6741651558
16	305	10	1486.8487756633
17	11	1	1404.6085563151
17	42	2	1401.7987669116
17	81	3	1396.9610205304
17	113	4	1390.493859048
17	145	5	1382.4295764968
17	177	6	1372.7390155132
17	209	7	1362.9381733162
17	241	8	1356.4606236054
17	273	9	1362.8149458525
17	305	10	1372.2693477335
18	11	1	834.60253726576
18	42	2	836.47556257976
18	81	3	839.66648438681
18	113	4	844.21705061574
18	145	5	850.09856694053
18	177	6	856.98811411071
18	209	7	863.91505090856
18	241	8	870.82725571177
18	273	9	877.75473473435
18	305	10	883.12996222329
19	11	1	761.66779345798
19	42	2	760.20775908695
19	81	3	757.72041656215
19	113	4	754.17322312478
19	145	5	749.58854617262
19	177	6	744.21810318177
19	209	7	738.8185147538
19	241	8	733.43041000327
19	273	9	728.0303989079
19	305	10	723.84037711414
20	42	2	3.823456507944
20	81	3	5.6337917703478
20	113	4	7.5472561601521
20	145	5	9.3900482154632
20	177	6	11.494784456947
20	209	7	13.638211269113
20	241	8	15.417714253211
20	273	9	15.408166206955
20	305	10	14.404189906995
21	42	2	3.5494577054596
21	81	3	5.5511473287955
21	113	4	7.4371884507882
21	145	5	9.119378726875
21	177	6	9.1279055869035
21	209	7	9.1383012654321
21	241	8	9.0957999355383
21	273	9	9.2044144409048
21	305	10	9.2008040501448
22	42	2	3.5225016430937
22	81	3	5.3902175229331
22	113	4	7.3485110220135
22	145	5	8.9753359045903
22	177	6	9.0089644147618
22	209	7	9.0029082841426
22	241	8	8.9541174476384
22	273	9	9.0689753867802
22	305	10	9.0357990119699
23	42	2	3.6257173583215
23	81	3	5.6988538264531
23	113	4	7.6407245699876
23	145	5	9.6730001790636
23	177	6	11.54314414602
23	209	7	12.181900598673
23	241	8	12.137528596849
23	273	9	12.198295394169
23	305	10	12.25473726359
24	42	2	3.5635808933811
24	81	3	5.5357368613854
24	113	4	7.3902736322657
24	145	5	9.5955569405579
24	177	6	11.543100562168
24	209	7	13.605298966726
24	241	8	15.614729644594
24	273	9	15.962171452893
24	305	10	15.936315659108
25	42	2	3.6742565394753
25	81	3	5.4813005604014
25	113	4	7.4063694917156
25	145	5	8.4100486526298
25	177	6	8.4070156464805
25	209	7	8.3525848393431
25	241	8	8.347788389985
25	273	9	8.4477645950238
25	305	10	8.4468670572629
26	42	2	3.7140622864099
26	81	3	5.7347985383792
26	113	4	7.2867985385041
26	145	5	9.2942611414045
26	177	6	10.509129566356
26	209	7	10.560537018835
26	241	8	10.50910791833
26	273	9	10.590195892331
26	305	10	10.498429649371
27	42	2	3.6250404470836
27	81	3	5.3878243405584
27	113	4	7.3109570816837
27	145	5	9.2968713053691
27	177	6	11.371066450288
27	209	7	13.211996742687
27	241	8	13.064245490128
27	273	9	8.5949674016818
27	305	10	7.6521083171259
28	42	2	3.9981468017583
28	81	3	5.9877441594305
28	113	4	7.7718247824393
28	145	5	9.5392743945515
28	177	6	11.41431094289
28	209	7	8.7821005054687
28	241	8	7.1221005054687
28	273	9	9.2612409292635
28	305	10	11.105846644366
29	42	2	3.5062234341566
29	81	3	5.5384824399723
29	113	4	7.3354523559663
29	145	5	9.4271002360832
29	177	6	10.028140170444
29	209	7	9.9620014016057
29	241	8	9.9486279157113
29	273	9	9.9848671654848
29	305	10	6.9745827615292
30	81	3	3315
30	113	4	3317.7052281783
30	145	5	3321.493893038
30	177	6	3324.3249559789
30	209	7	3328.1519707075
30	241	8	3332.9409135003
30	273	9	3338.2295767117
30	305	10	3344.1008098635
31	81	3	553.33
31	113	4	555.20969576229
31	145	5	549.89586268508
31	177	6	545.92948818252
31	209	7	540.56776576328
31	241	8	533.78164301756
31	273	9	525.21586067609
31	305	10	515.03304747995
32	81	3	1.8103352624038
32	113	4	1.9134643898043
32	145	5	1.8427920553111
32	177	6	2.1047362414841
32	209	7	2.1434268121654
32	241	8	1.7795029840986
32	273	9	-0.0095480462559507
32	305	10	-1.0039762999604
33	81	3	3.8562642931653
33	113	4	4.9941721244841
33	145	5	5.8097023126035
33	177	6	7.6354450151985
33	209	7	9.0472808634776
33	241	8	8.8043525289617
33	273	9	2.1557636001858
33	305	10	0.973
34	81	3	2.0016896233358
34	113	4	1.8860411219927
34	145	5	1.6821902760868
34	177	6	0.0085268600285051
34	209	7	0.010395678528585
34	241	8	-0.042501329893712
34	273	9	0.10861450536642
34	305	10	-0.003610390760004
35	81	3	4.0715031062076
35	113	4	4.8872405464348
35	145	5	5.3170463408066
35	177	6	1.6393442027896
35	209	7	1.6442231258393
35	241	8	1.5251324421119
35	273	9	1.866994510616
35	305	10	1.6177943168161
36	81	3	1.8677158798394
36	113	4	1.9582934990805
36	145	5	1.6268248825767
36	177	6	0.033628510171548
36	209	7	-0.0060561306192533
36	241	8	-0.048790836504196
36	273	9	0.1148579391418
36	305	10	-0.033176374810283
37	81	3	3.8107336912912
37	113	4	4.9692708067647
37	145	5	5.1286755089246
37	177	6	1.6851509715846
37	209	7	1.5985698135717
37	241	8	1.5029782863139
37	273	9	1.8674279985681
37	305	10	1.5417921790829
38	81	3	2.0731364681316
38	113	4	1.9418707435345
38	145	5	2.032275609076
38	177	6	1.8701439669565
38	209	7	0.63875645265243
38	241	8	-0.044372001823504
38	273	9	0.06076679731952
38	305	10	0.056441869421397
39	81	3	4.2493052205414
39	113	4	5.0955852388321
39	145	5	6.3978619161415
39	177	6	7.0114745061801
39	209	7	3.7399409086249
39	241	8	1.7309021603991
39	273	9	2.0447630446835
39	305	10	2.037877481407
40	81	3	1.9721559680044
40	113	4	1.8545367708802
40	145	5	2.2052833082923
40	177	6	1.9475436216104
40	209	7	2.062198404558
40	241	8	2.0094306778675
40	273	9	0.34744180829953
40	305	10	-0.025855793785304
41	81	3	4.02379312276
41	113	4	4.8068272675304
41	145	5	6.7542892550092
41	177	6	7.2267682621527
41	209	7	8.7606613800022
41	241	8	9.7767463228364
41	273	9	3.5922896595832
41	305	10	2.1533484000517
42	81	3	1.8070440209261
42	113	4	1.9250689313142
42	145	5	1.0036791609142
42	177	6	-0.0030330061493444
42	209	7	-0.054430807137395
42	241	8	-0.0047964493581105
42	273	9	0.099976205038839
42	305	10	-0.00089753776090262
43	81	3	3.7767245315045
43	113	4	4.9409371545599
43	145	5	3.604929541413
43	177	6	1.564299924615
43	209	7	1.4571923138189
43	241	8	1.5567864126435
43	273	9	1.7767555244996
43	305	10	1.5713246824516
44	81	3	2.0207362519694
44	113	4	1.5520000001249
44	145	5	2.0074626029003
44	177	6	1.2148684249511
44	209	7	0.05140745247947
44	241	8	-0.051429100504611
44	273	9	0.081087974000257
44	305	10	-0.091766242960002
45	81	3	4.1969020404599
45	113	4	4.2227533325449
45	145	5	6.1290727640351
45	177	6	4.8010772353101
45	209	7	1.8590773219798
45	241	8	1.5939237684727
45	273	9	1.9375465099774
45	305	10	1.4911566249716
46	81	3	1.7627838934748
46	113	4	1.9231327411253
46	145	5	1.9859142236854
46	177	6	2.0741951449192
46	209	7	1.8409302923991
46	241	8	-0.14775125255987
46	273	9	-4.4692780884458
46	305	10	-0.94285908455592
47	81	3	3.6732711830147
47	113	4	4.8872253530665
47	145	5	6.0822438420077
47	177	6	7.4785445817584
47	209	7	7.8220849909985
47	241	8	1.4810071733798
47	273	9	0.973
47	305	10	0.973
48	81	3	1.9895973576722
48	113	4	1.7840806230088
48	145	5	1.7674496121122
48	177	6	1.8750365483388
48	209	7	-2.6322104374216
48	241	8	-1.66
48	273	9	2.1391404237947
48	305	10	1.8446057151025
49	81	3	4.2897617802794
49	113	4	4.8698785035168
49	145	5	5.7136693460574
49	177	6	6.9559481114885
49	209	7	0.973
49	241	8	0.973
49	273	9	6.4046165482739
49	305	10	6.7093898809724
50	81	3	2.0322590058157
50	113	4	1.796969915994
50	145	5	2.0916478801169
50	177	6	0.6010399343612
50	209	7	-0.066138768838719
50	241	8	-0.013373485894407
50	273	9	0.036239249773541
50	305	10	-3.0102844039556
51	81	3	4.1054778315788
51	113	4	4.677087821507
51	145	5	6.3942372632051
51	177	6	3.1395007887329
51	209	7	1.5231079873174
51	241	8	1.6488197550759
51	273	9	1.770834547037
51	305	10	0.973
52	113	4	2.2615134208564
52	145	5	4.3302987156598
52	177	6	6.2758017303468
52	209	7	8.1976042432593
52	241	8	10.105502567161
52	273	9	11.961711736154
52	305	10	13.938153779467
53	145	5	2.0687852948034
53	177	6	1.945503014687
53	209	7	1.9218025129125
53	241	8	1.9078983239015
53	273	9	1.8562091689929
53	305	10	1.9764420433133
54	145	5	3.4853831841187
54	177	6	4.3780900639914
54	209	7	5.3530990766427
54	241	8	6.3393685523487
54	273	9	7.1961693526921
54	305	10	8.6715762980979

