version 2
run Default-0-20240803-10:55:10-2454
attr configname Default
attr datetime 20240803-10:55:10
attr experiment Default
attr inifile omnetpp.ini
attr iterationvars ""
attr iterationvarsf ""
attr measurement ""
attr network RSUExampleScenario
attr processid 2454
attr repetition 0
attr replication #0
attr resultdir results
attr runnumber 0
attr seedset 0
param *.car[*].numAttackPackets 1000
param *.car[*].attackInterval 0.1s
param **.car[*].pdrSignal.statistics true
param **.car[*].delaySignal.statistics true
param **.car[*].throughputSignal.statistics true
param **.car[*].collisionRateSignal.statistics true
param **.node[*].pdrSignal.statistics true
param **.node[*].delaySignal.statistics true
param **.node[*].throughputSignal.statistics true
param **.node[*].collisionRateSignal.statistics true
param **.rsu[*].pdrSignal.statistics true
param **.rsu[*].delaySignal.statistics true
param **.rsu[*].throughputSignal.statistics true
param **.rsu[*].collisionRateSignal.statistics true
param *.attackNetwork.attacker[0].targetNodeAddress 1
param *.attackNetwork.attacker[1].targetNodeAddress 1
param *.attackNetwork.attacker[2].targetNodeAddress 1
param *.playgroundSizeX 4705m
param *.playgroundSizeY 3350m
param *.playgroundSizeZ 50m
param *.annotations.draw true
param *.obstacles.obstacles "xmldoc(\"config.xml\", \"//AnalogueModel[@type='SimpleObstacleShadowing']/obstacles\")"
param *.manager.updateInterval 1s
param *.manager.host "\"localhost\""
param *.manager.port 9999
param *.manager.autoShutdown true
param *.manager.launchConfig "xmldoc(\"bristol.launchd.xml\")"
param *.rsu[0].mobility.x 2000
param *.rsu[0].mobility.y 2000
param *.rsu[0].mobility.z 3
param *.rsu[*].applType "\"TraCIDemoRSU11p\""
param *.rsu[*].appl.headerLength "80 bit"
param *.rsu[*].appl.sendBeacons true
param *.rsu[*].appl.dataOnSch false
param *.rsu[*].appl.beaconInterval 1s
param *.rsu[*].appl.beaconUserPriority 7
param *.rsu[*].appl.dataUserPriority 5
param *.rsu[*].nic.phy80211p.antennaOffsetZ "0 m"
param *.rsu[0].appl.psid 42
param *.connectionManager.sendDirect true
param *.connectionManager.maxInterfDist 2600m
param *.connectionManager.drawMaxIntfDist false
param *.**.nic.mac1609_4.useServiceChannel false
param *.**.nic.mac1609_4.txPower 20mW
param *.**.nic.mac1609_4.bitrate 6Mbps
param *.**.nic.phy80211p.minPowerLevel -110dBm
param *.**.nic.phy80211p.useNoiseFloor true
param *.**.nic.phy80211p.noiseFloor -98dBm
param *.**.nic.phy80211p.decider "xmldoc(\"config.xml\")"
param *.**.nic.phy80211p.analogueModels "xmldoc(\"config.xml\")"
param *.**.nic.phy80211p.usePropagationDelay true
param *.**.nic.phy80211p.antenna "xmldoc(\"antenna.xml\", \"/root/Antenna[@id='monopole']\")"
param *.node[*].nic.phy80211p.antennaOffsetY "0 m"
param *.node[*].nic.phy80211p.antennaOffsetZ "1.895 m"
param *.node[*].applType "\"TraCIDemo11p\""
param *.node[*].appl.headerLength "80 bit"
param *.node[*].appl.sendBeacons false
param *.node[*].appl.dataOnSch false
param *.node[*].appl.beaconInterval 1s
param *.node[*].veinsmobility.x 0
param *.node[*].veinsmobility.y 0
param *.node[*].veinsmobility.z 0
param *.node[*].veinsmobility.setHostSpeed false
param *.node[*0].veinsmobility.accidentCount 1
param *.node[*0].veinsmobility.accidentStart 120s
param *.node[*0].veinsmobility.accidentDuration 50s

vector 0 RSUExampleScenario.node[0].veinsmobility posx ETV
vector 1 RSUExampleScenario.node[0].veinsmobility posy ETV
vector 2 RSUExampleScenario.node[1].veinsmobility posx ETV
vector 3 RSUExampleScenario.node[1].veinsmobility posy ETV
vector 4 RSUExampleScenario.node[2].veinsmobility posx ETV
vector 5 RSUExampleScenario.node[2].veinsmobility posy ETV
vector 6 RSUExampleScenario.node[3].veinsmobility posx ETV
vector 7 RSUExampleScenario.node[3].veinsmobility posy ETV
vector 8 RSUExampleScenario.node[4].veinsmobility posx ETV
vector 9 RSUExampleScenario.node[4].veinsmobility posy ETV
vector 10 RSUExampleScenario.node[5].veinsmobility posx ETV
vector 11 RSUExampleScenario.node[5].veinsmobility posy ETV
vector 12 RSUExampleScenario.node[6].veinsmobility posx ETV
vector 13 RSUExampleScenario.node[6].veinsmobility posy ETV
vector 14 RSUExampleScenario.node[7].veinsmobility posx ETV
vector 15 RSUExampleScenario.node[7].veinsmobility posy ETV
vector 16 RSUExampleScenario.node[8].veinsmobility posx ETV
vector 17 RSUExampleScenario.node[8].veinsmobility posy ETV
vector 18 RSUExampleScenario.node[9].veinsmobility posx ETV
vector 19 RSUExampleScenario.node[9].veinsmobility posy ETV
vector 20 RSUExampleScenario.node[0].veinsmobility speed ETV
vector 21 RSUExampleScenario.node[1].veinsmobility speed ETV
vector 22 RSUExampleScenario.node[2].veinsmobility speed ETV
vector 23 RSUExampleScenario.node[3].veinsmobility speed ETV
vector 24 RSUExampleScenario.node[4].veinsmobility speed ETV
vector 25 RSUExampleScenario.node[5].veinsmobility speed ETV
vector 26 RSUExampleScenario.node[6].veinsmobility speed ETV
vector 27 RSUExampleScenario.node[7].veinsmobility speed ETV
vector 28 RSUExampleScenario.node[8].veinsmobility speed ETV
vector 29 RSUExampleScenario.node[9].veinsmobility speed ETV
vector 30 RSUExampleScenario.node[10].veinsmobility posx ETV
vector 31 RSUExampleScenario.node[10].veinsmobility posy ETV
vector 32 RSUExampleScenario.node[0].veinsmobility acceleration ETV
vector 33 RSUExampleScenario.node[0].veinsmobility co2emission ETV
vector 34 RSUExampleScenario.node[1].veinsmobility acceleration ETV
vector 35 RSUExampleScenario.node[1].veinsmobility co2emission ETV
vector 36 RSUExampleScenario.node[2].veinsmobility acceleration ETV
vector 37 RSUExampleScenario.node[2].veinsmobility co2emission ETV
vector 38 RSUExampleScenario.node[3].veinsmobility acceleration ETV
vector 39 RSUExampleScenario.node[3].veinsmobility co2emission ETV
vector 40 RSUExampleScenario.node[4].veinsmobility acceleration ETV
vector 41 RSUExampleScenario.node[4].veinsmobility co2emission ETV
vector 42 RSUExampleScenario.node[5].veinsmobility acceleration ETV
vector 43 RSUExampleScenario.node[5].veinsmobility co2emission ETV
vector 44 RSUExampleScenario.node[6].veinsmobility acceleration ETV
vector 45 RSUExampleScenario.node[6].veinsmobility co2emission ETV
vector 46 RSUExampleScenario.node[7].veinsmobility acceleration ETV
vector 47 RSUExampleScenario.node[7].veinsmobility co2emission ETV
vector 48 RSUExampleScenario.node[8].veinsmobility acceleration ETV
vector 49 RSUExampleScenario.node[8].veinsmobility co2emission ETV
vector 50 RSUExampleScenario.node[9].veinsmobility acceleration ETV
vector 51 RSUExampleScenario.node[9].veinsmobility co2emission ETV
vector 52 RSUExampleScenario.node[10].veinsmobility speed ETV
vector 53 RSUExampleScenario.node[10].veinsmobility acceleration ETV
vector 54 RSUExampleScenario.node[10].veinsmobility co2emission ETV
0	11	1	3317.6974435821
0	41	2	3321.1497196999
0	71	3	3323.6499442697
0	103	4	3327.1659082837
0	135	5	3331.6281156821
0	167	6	3336.7107378864
0	199	7	3342.7187646405
0	231	8	3348.2849777959
0	263	9	3354.0003003549
0	295	10	3359.1052263245
0	327	11	3367.3724661631
0	359	12	3373.8561068904
0	391	13	3380.3504725342
0	423	14	3386.7369133306
0	455	15	3393.0929186531
0	487	16	3399.4424932714
0	519	17	3405.810796469
0	551	18	3412.1658469239
0	583	19	3425.4237133704
0	615	20	3431.4778605797
0	647	21	3437.5325639778
0	679	22	3443.569621937
0	711	23	3449.6169918187
0	743	24	3455.6585608949
0	805	25	3468.052472982
0	837	26	3473.0094772255
0	869	27	3477.9856800636
0	901	28	3490.0698898411
0	933	29	3495.2393582023
0	965	30	3500.1962949577
0	997	31	3503.2439134784
0	1029	32	3504.0096803216
0	1061	33	3504.0096803216
0	1093	34	3504.0096803216
0	1125	35	3504.0096803216
0	1157	36	3504.0096803216
0	1189	37	3504.0096803216
0	1221	38	3504.0096803216
0	1253	39	3504.0096803216
0	1285	40	3504.0096803216
0	1317	41	3504.0096803216
0	1377	42	3504.0096803216
0	1409	43	3504.0096803216
0	1470	44	3504.0096803216
0	1502	45	3504.0096803216
0	1534	46	3511.9828629721
0	1566	47	3513.8757880838
0	1598	48	3516.8420265083
0	1630	49	3520.7883995388
0	1662	50	3525.7965025038
0	1694	51	3533.9726911536
0	1726	52	3541.0988827915
0	1758	53	3549.1362023716
0	1790	54	3573.136058782
0	1822	55	3583.8354691817
0	1854	56	3594.656982773
0	1886	57	3605.5747759319
0	1918	58	3616.4891859516
0	1950	59	3627.399797195
0	1982	60	3646.3784139439
0	2014	61	3656.0486904554
0	2046	62	3664.7801806612
0	2078	63	3665.4750831726
0	2110	64	3666.1707533723
0	2142	65	3666.865540784
0	2174	66	3667.9825876721
0	2206	67	3668.4509387022
0	2238	68	3668.9184468592
0	2270	69	3669.9469883909
0	2302	70	3669.9065758047
0	2362	71	3669.8097819029
0	2394	72	3669.2593513741
0	2426	73	3668.7266964601
0	2458	74	3668.2960471903
0	2490	75	3668.2958478201
0	2522	76	3668.2958478201
0	2554	77	3668.2958478201
1	11	1	555.22007522392
1	41	2	550.37805625736
1	71	3	546.87519277757
1	103	4	541.94925848777
1	135	5	535.69761872569
1	167	6	527.675847684
1	199	7	517.94494832066
1	231	8	505.96667781347
1	263	9	493.3315718225
1	295	10	480.58485239542
1	327	11	469.73794233794
1	359	12	475.20318604976
1	391	13	480.67747009635
1	423	14	486.26041956283
1	455	15	491.85362853478
1	487	16	497.44117856373
1	519	17	503.0452095193
1	551	18	508.63757821922
1	583	19	520.63170727267
1	615	20	526.23892709004
1	647	21	531.8466620374
1	679	22	537.43805416197
1	711	23	543.03899696557
1	743	24	548.6345671889
1	805	25	560.12476454728
1	837	26	564.72042321965
1	869	27	569.33388098676
1	901	28	580.52068917257
1	933	29	585.31087567922
1	965	30	589.90953044123
1	997	31	592.73687041232
1	1029	32	593.44728846166
1	1061	33	593.44728846166
1	1093	34	593.44728846166
1	1125	35	593.44728846166
1	1157	36	593.44728846166
1	1189	37	593.44728846166
1	1221	38	593.44728846166
1	1253	39	593.44728846166
1	1285	40	593.44728846166
1	1317	41	593.44728846166
1	1377	42	593.44728846166
1	1409	43	593.44728846166
1	1470	44	593.44728846166
1	1502	45	593.44728846166
1	1534	46	592.09946289128
1	1566	47	590.54116232273
1	1598	48	588.09928493687
1	1630	49	584.8505376414
1	1662	50	580.7277492386
1	1694	51	578.2724163402
1	1726	52	572.40480608457
1	1758	53	566.02869813663
1	1790	54	551.17869546071
1	1822	55	545.07903158801
1	1854	56	539.20059825223
1	1886	57	533.50416530271
1	1918	58	527.80949752914
1	1950	59	522.11681179292
1	1982	60	515.47745230751
1	2014	61	517.81416743495
1	2046	62	528.93281815012
1	2078	63	542.65388946061
1	2110	64	556.39011902246
1	2142	65	570.10891765219
1	2174	66	592.3134540019
1	2206	67	601.65918592062
1	2238	68	610.98809869125
1	2270	69	638.01513242616
1	2302	70	645.78647275754
1	2362	71	653.4706323135
1	2394	72	659.41781273923
1	2426	73	662.98400762303
1	2458	74	664.1878680816
1	2490	75	664.18842541197
1	2522	76	664.18842541197
1	2554	77	664.18842541197
2	11	1	3133.5092980678
2	41	2	3131.7773313199
2	71	3	3128.7328707115
2	103	4	3124.5036477287
2	135	5	3119.1111001875
2	167	6	3113.2492223738
2	199	7	3107.3646979841
2	231	8	3101.4774710655
2	263	9	3092.6749615476
2	295	10	3088.5807847997
2	327	11	3085.2660521488
2	359	12	3081.0521314655
2	391	13	3079.8296007405
2	423	14	3078.631996861
2	455	15	3079.8893041981
2	487	16	3083.3173326973
2	519	17	3086.9248305031
2	551	18	3090.7610491049
2	583	19	3094.7287711725
2	615	20	3102.5713652143
2	647	21	3110.1593806333
2	679	22	3114.3808231733
2	711	23	3118.5561451381
2	743	24	3122.7419897764
2	805	25	3125.4679649037
2	837	26	3152.9895950577
2	869	27	3153.6252091244
2	901	28	3155.0903369636
2	933	29	3164.3499921883
2	965	30	3173.2810261934
2	997	31	3187.0802045222
2	1029	32	3192.5243290409
2	1061	33	3197.9603667265
2	1093	34	3204.0501538157
2	1125	35	3207.2018829263
2	1157	36	3209.1342645004
2	1189	37	3210.3333681881
2	1221	38	3206.2872417981
2	1253	39	3205.5570249279
2	1285	40	3204.8267316639
2	1317	41	3204.0963789207
2	1377	42	3201.5391494196
2	1409	43	3200.8401372703
2	1470	44	3199.5291218917
2	1502	45	3196.8593767547
2	1534	46	3193.1843792744
2	1566	47	3191.2056596348
2	1598	48	3189.2234805744
2	1630	49	3185.867785779
2	1662	50	3184.540067934
2	1694	51	3183.212348493
2	1726	52	3181.8825590084
2	1758	53	3180.5535935371
2	1790	54	3179.2972629
2	1822	55	3178.4326738362
2	1854	56	3167.4555156966
2	1886	57	3165.8297441017
2	1918	58	3163.8856876553
2	1950	59	3159.6152664987
2	1982	60	3159.5420772281
2	2014	61	3147.7646939069
2	2046	62	3145.5560395038
2	2078	63	3143.3496625533
2	2110	64	3140.5296246585
2	2142	65	3140.9099759997
2	2174	66	3139.9323947127
2	2206	67	3138.3292049131
2	2238	68	3136.7300590088
2	2270	69	3135.254797945
2	2302	70	3130.192900996
2	2362	71	3127.0762734745
2	2394	72	3125.1635147163
2	2426	73	3123.2536298164
2	2458	74	3121.3414087007
2	2490	75	3119.4296993072
2	2522	76	3117.5155463874
2	2554	77	3115.6105123594
3	11	1	917.83876565813
3	41	2	917.93070957191
3	71	3	918.09232908568
3	103	4	918.59384553578
3	135	5	919.2634872603
3	167	6	919.99140999776
3	199	7	920.68209209752
3	231	8	920.93001785581
3	263	9	917.60220429615
3	295	10	913.75412560409
3	327	11	909.32808625676
3	359	12	894.99406033987
3	391	13	887.13532583666
3	423	14	879.43682735548
3	455	15	872.50996094804
3	487	16	879.44420105252
3	519	17	886.74009367173
3	551	18	893.92307414426
3	583	19	901.02848906529
3	615	20	908.94237342964
3	647	21	910.27238655576
3	679	22	909.96276143617
3	711	23	909.50129302576
3	743	24	909.03866161969
3	805	25	908.73737912712
3	837	26	892.90844250718
3	869	27	890.12100998586
3	901	28	887.0576313258
3	933	29	873.34633847603
3	965	30	869.81724924657
3	997	31	868.17601787893
3	1029	32	871.24516257535
3	1061	33	874.30974829064
3	1093	34	879.38015381574
3	1125	35	883.8525875639
3	1157	36	888.98195019043
3	1189	37	894.33788931878
3	1221	38	936.86052825886
3	1253	39	946.01166118596
3	1285	40	955.16375148804
3	1317	41	964.31658718677
3	1377	42	977.98295373787
3	1409	43	991.08824274154
3	1470	44	1004.0953632643
3	1502	45	1016.9652403127
3	1534	46	1034.3552794393
3	1566	47	1043.6856137868
3	1598	48	1053.0322604775
3	1630	49	1068.8091248879
3	1662	50	1075.0293487991
3	1694	51	1081.2495801872
3	1726	52	1087.4795095205
3	1758	53	1093.7055784349
3	1790	54	1099.5913604923
3	1822	55	1103.641872872
3	1854	56	1159.562968029
3	1886	57	1164.8698444827
3	1918	58	1171.2156727729
3	1950	59	1184.3445203023
3	1982	60	1184.4762609894
3	2014	61	1211.8896163374
3	2046	62	1224.5833114232
3	2078	63	1237.2639174133
3	2110	64	1258.2171168777
3	2142	65	1269.5832827897
3	2174	66	1280.8557955315
3	2206	67	1292.081861168
3	2238	68	1303.313783948
3	2270	69	1314.556066147
3	2302	70	1326.2068534265
3	2362	71	1347.0449562006
3	2394	72	1359.7897884307
3	2426	73	1372.5154719624
3	2458	74	1385.2567218463
3	2490	75	1397.9945620934
3	2522	76	1410.7486837109
3	2554	77	1423.4824679201
4	11	1	739.63611667643
4	41	2	740.34755860859
4	71	3	741.71245871081
4	103	4	743.87763918397
4	135	5	747.59639534144
4	167	6	752.20316753502
4	199	7	757.67054728268
4	231	8	763.62409065719
4	263	9	769.94477432867
4	295	10	776.4579795286
4	327	11	783.22415067464
4	359	12	790.395815688
4	391	13	797.84189614375
4	423	14	805.36184254428
4	455	15	811.60028910166
4	487	16	835.89436633752
4	519	17	844.16223430952
4	551	18	853.85637341376
4	583	19	864.56918386185
4	615	20	875.25248604688
4	647	21	885.51781967154
4	679	22	892.71204722576
4	711	23	904.93108765275
4	743	24	912.61786171973
4	805	25	920.47570429731
4	837	26	930.00312266688
4	869	27	937.72701764397
4	901	28	947.15195835553
4	933	29	958.03901121222
4	965	30	978.52630632739
4	997	31	990.45120932756
4	1029	32	1002.3620567913
4	1061	33	1014.2827045261
4	1093	34	1026.193577774
4	1125	35	1038.1114705418
4	1157	36	1050.0242428961
4	1189	37	1071.5232161683
4	1221	38	1084.39873348
4	1253	39	1097.2817846867
4	1285	40	1110.1516438154
4	1317	41	1123.0161373154
4	1377	42	1135.8651328563
4	1409	43	1148.7382723265
4	1470	44	1161.6778566214
4	1502	45	1174.60973585
4	1534	46	1187.5476714765
4	1566	47	1200.4746186622
4	1598	48	1212.6969554945
4	1630	49	1220.9665229262
4	1662	50	1230.2249641442
4	1694	51	1236.9372170417
4	1726	52	1245.0467488425
4	1758	53	1266.4679867986
4	1790	54	1279.2254291708
4	1822	55	1291.9425612646
4	1854	56	1304.6664762394
4	1886	57	1317.3735496717
4	1918	58	1330.0940453829
4	1950	59	1342.8315870942
4	1982	60	1355.5581644005
4	2014	61	1368.2691406523
4	2046	62	1380.9912647893
4	2078	63	1393.7252628065
4	2110	64	1406.4458613039
4	2142	65	1419.1550411701
4	2174	66	1440.6507884461
4	2206	67	1449.7683037226
4	2238	68	1457.1148390919
4	2270	69	1469.1756540158
4	2302	70	1478.1239252148
4	2362	71	1486.4302604521
4	2394	72	1493.2977211798
4	2426	73	1503.8953724013
4	2458	74	1512.8393443945
4	2490	75	1523.6612884564
4	2522	76	1535.7713538326
4	2554	77	1547.9671871791
5	11	1	1908.1697892473
5	41	2	1910.4715131454
5	71	3	1914.3790819742
5	103	4	1919.8607690451
5	135	5	1926.3273833786
5	167	6	1933.0271101263
5	199	7	1939.0759751389
5	231	8	1944.6280930396
5	263	9	1949.7537605141
5	295	10	1954.6451413485
5	327	11	1959.152390775
5	359	12	1962.9953293484
5	391	13	1966.325425762
5	423	14	1969.4416915503
5	455	15	1972.0269038037
5	487	16	1979.6758873928
5	519	17	1978.7586126853
5	551	18	1977.3055869819
5	583	19	1975.5615487426
5	615	20	1973.2200030582
5	647	21	1970.9700669213
5	679	22	1969.3932499231
5	711	23	1966.4750747043
5	743	24	1964.2921550163
5	805	25	1962.0606546343
5	837	26	1962.8794389031
5	869	27	1961.0576235187
5	901	28	1958.8345868206
5	933	29	1956.2666854646
5	965	30	1951.9411848737
5	997	31	1949.7987789764
5	1029	32	1947.6588982707
5	1061	33	1945.5172568666
5	1093	34	1943.3773715285
5	1125	35	1941.2362250766
5	1157	36	1939.0959985487
5	1189	37	1935.5687851656
5	1221	38	1933.68345508
5	1253	39	1931.7970218248
5	1285	40	1929.7356868044
5	1317	41	1927.6338966729
5	1377	42	1925.5346385849
5	1409	43	1923.4314358821
5	1470	44	1921.9339512986
5	1502	45	1920.4987142272
5	1534	46	1919.0628049901
5	1566	47	1917.6281152986
5	1598	48	1916.662238816
5	1630	49	1916.0621608612
5	1662	50	1912.4033191054
5	1694	51	1911.9090199116
5	1726	52	1911.3013288981
5	1758	53	1909.5521099107
5	1790	54	1907.8486147548
5	1822	55	1906.1505022111
5	1854	56	1904.4514839526
5	1886	57	1902.7547145371
5	1918	58	1901.0561528512
5	1950	59	1899.3553150211
5	1982	60	1897.6559412627
5	2014	61	1895.9586507056
5	2046	62	1894.2598715768
5	2078	63	1892.5595069344
5	2110	64	1890.8609315235
5	2142	65	1889.1638808369
5	2174	66	1886.393029787
5	2206	67	1885.3380306733
5	2238	68	1884.487953863
5	2270	69	1882.9237391848
5	2302	70	1879.0091965809
5	2362	71	1877.4570530252
5	2394	72	1877.108615523
5	2426	73	1878.4403914903
5	2458	74	1877.5718771681
5	2490	75	1876.6370468769
5	2522	76	1875.6535627797
5	2554	77	1874.8898391358
6	11	1	1886.6471631102
6	41	2	1879.8388018725
6	71	3	1877.5586419276
6	103	4	1874.2841566279
6	135	5	1865.6754464197
6	167	6	1858.9810965637
6	199	7	1851.3639506649
6	231	8	1843.7106531889
6	263	9	1836.0458801502
6	295	10	1828.3818406642
6	327	11	1820.7387772831
6	359	12	1813.7274062604
6	391	13	1807.0365321788
6	423	14	1800.3599568863
6	455	15	1793.6541255151
6	487	16	1787.0968012114
6	519	17	1781.2376024543
6	551	18	1777.3372934201
6	583	19	1779.7437899954
6	615	20	1784.8768935259
6	647	21	1790.0052589974
6	679	22	1795.1287143758
6	711	23	1809.0683008562
6	743	24	1814.226151992
6	805	25	1819.3479631749
6	837	26	1824.5024049342
6	869	27	1832.9164476635
6	901	28	1846.9645781269
6	933	29	1853.3569026366
6	965	30	1859.9245769049
6	997	31	1866.4940507935
6	1029	32	1873.0596370162
6	1061	33	1879.6093233843
6	1093	34	1886.1687716953
6	1125	35	1892.6140560666
6	1157	36	1899.0374224975
6	1189	37	1905.4861864901
6	1221	38	1917.6887718526
6	1253	39	1923.6372148244
6	1285	40	1929.6170153573
6	1317	41	1935.6954152122
6	1377	42	1944.723969947
6	1409	43	1947.7089949016
6	1470	44	1958.6269767301
6	1502	45	1970.4191596005
6	1534	46	1977.4103237654
6	1566	47	1992.6430807387
6	1598	48	2000.4968402455
6	1630	49	2008.2481274422
6	1662	50	2019.4762152693
6	1694	51	2023.6089595025
6	1726	52	2026.922924266
6	1758	53	2032.79538393
6	1790	54	2035.6217804083
6	1822	55	2038.5639579008
6	1854	56	2042.0567163921
6	1886	57	2056.8568492095
6	1918	58	2059.4409375267
6	1950	59	2061.8473459033
6	1982	60	2073.3198257145
6	2014	61	2078.5397833232
6	2046	62	2083.7556205706
6	2078	63	2088.9637087158
6	2110	64	2103.2123327305
6	2142	65	2107.4921460344
6	2174	66	2111.3865177503
6	2206	67	2127.1864230608
6	2238	68	2134.3418385242
6	2270	69	2141.4863272381
6	2302	70	2148.6426440679
6	2362	71	2155.8065122619
6	2394	72	2162.9667778034
6	2426	73	2170.1123815428
6	2458	74	2177.2552546078
6	2490	75	2184.4039718017
6	2522	76	2191.5571448529
6	2554	77	2198.712044714
7	11	1	2656.1954913976
7	41	2	2662.0267620547
7	71	3	2663.9080669232
7	103	4	2666.6097656134
7	135	5	2669.3355813117
7	167	6	2661.7508983722
7	199	7	2653.1206896457
7	231	8	2644.4495212656
7	263	9	2635.7653510995
7	295	10	2627.0820120469
7	327	11	2618.4224388727
7	359	12	2609.230188316
7	391	13	2599.7943402521
7	423	14	2590.3786571473
7	455	15	2580.92171547
7	487	16	2571.4089252389
7	519	17	2562.1050077701
7	551	18	2555.9116433084
7	583	19	2547.9733301252
7	615	20	2545.8578373033
7	647	21	2543.7442971655
7	679	22	2541.6327806118
7	711	23	2535.8577730679
7	743	24	2533.7171530972
7	805	25	2531.5914904879
7	837	26	2529.4522854823
7	869	27	2525.9613087556
7	901	28	2520.2876790537
7	933	29	2517.74448976
7	965	30	2515.6034355545
7	997	31	2513.4617946747
7	1029	32	2511.3214211696
7	1061	33	2509.1862309986
7	1093	34	2507.0478584456
7	1125	35	2504.5903082707
7	1157	36	2502.0127266132
7	1189	37	2499.5802229992
7	1221	38	2495.6180639667
7	1253	39	2493.8504323233
7	1285	40	2492.205836019
7	1317	41	2490.805415933
7	1377	42	2484.2773126196
7	1409	43	2478.3271165892
7	1470	44	2474.7896032923
7	1502	45	2467.5704371335
7	1534	46	2463.4337531058
7	1566	47	2454.1349897754
7	1598	48	2449.0921477615
7	1630	49	2443.9195703574
7	1662	50	2429.1924429552
7	1694	51	2421.5123090474
7	1726	52	2413.4853619627
7	1758	53	2396.1782808479
7	1790	54	2388.1330597956
7	1822	55	2380.148415456
7	1854	56	2372.4297816587
7	1886	57	2348.9503480069
7	1918	58	2344.7056386709
7	1950	59	2340.7527923094
7	1982	60	2337.778313659
7	2014	61	2337.8362863488
7	2046	62	2337.894213278
7	2078	63	2337.9520541458
7	2110	64	2338.1714406539
7	2142	65	2338.198309437
7	2174	66	2338.2227584074
7	2206	67	2338.3000150019
7	2238	68	2338.3279517625
7	2270	69	2338.355845862
7	2302	70	2338.3837861418
7	2362	71	2338.4117559043
7	2394	72	2338.439711601
7	2426	73	2338.4676100539
7	2458	74	2338.4954978454
7	2490	75	2338.5234084541
7	2522	76	2338.5513364598
7	2554	77	2338.5792712073
8	11	1	3241.275676909
8	41	2	3242.5221394192
8	71	3	3244.6486959281
8	103	4	3247.6271282797
8	135	5	3251.9520843929
8	167	6	3257.5950891611
8	199	7	3270.6484797354
8	231	8	3278.7218856875
8	263	9	3287.4734618327
8	295	10	3296.577434997
8	327	11	3312.4956728994
8	359	12	3321.3396708696
8	391	13	3328.4767017087
8	423	14	3333.1192496186
8	455	15	3333.0210942657
8	487	16	3329.3238641652
8	519	17	3324.8740625461
8	551	18	3295.3961176542
8	583	19	3287.7380184422
8	615	20	3281.8101968609
8	647	21	3278.0111090493
8	679	22	3268.5170624731
8	711	23	3262.9861590843
8	743	24	3257.1276454669
8	805	25	3251.2966696433
8	837	26	3245.5688835147
8	869	27	3233.0955993673
8	901	28	3226.6195203098
8	933	29	3220.1377347409
8	965	30	3213.6518734619
8	997	31	3207.1595433009
8	1029	32	3200.7194592184
8	1061	33	3194.6444049154
8	1093	34	3188.5704413049
8	1125	35	3182.4883169094
8	1157	36	3176.5299258456
8	1189	37	3171.3631456025
8	1221	38	3166.1934553338
8	1253	39	3161.0232614672
8	1285	40	3155.9433190859
8	1317	41	3151.4558475851
8	1377	42	3146.9614361949
8	1409	43	3142.8543855049
8	1470	44	3139.4096132585
8	1502	45	3135.9607014383
8	1534	46	3133.1719382073
8	1566	47	3130.7167105049
8	1598	48	3128.2648690705
8	1630	49	3125.8417378503
8	1662	50	3123.4223145923
8	1694	51	3121.0059092418
8	1726	52	3118.5867497068
8	1758	53	3116.6370499879
8	1790	54	3114.9339146056
8	1822	55	3114.8241136367
8	1854	56	3115.2091779599
8	1886	57	3115.7169458975
8	1918	58	3116.9595277011
8	1950	59	3118.9056179215
8	1982	60	3121.795593957
8	2014	61	3126.4455202298
8	2046	62	3132.1951557769
8	2078	63	3136.26665814
8	2110	64	3135.3645681224
8	2142	65	3128.817535402
8	2174	66	3125.7255859397
8	2206	67	3120.6605118604
8	2238	68	3114.6284262841
8	2270	69	3108.2166279755
8	2302	70	3103.8439985829
8	2362	71	3091.0292339463
8	2394	72	3083.7319789588
8	2426	73	3074.8733930458
8	2458	74	3064.3808585596
8	2490	75	3052.429143571
8	2522	76	3039.8339627404
8	2554	77	3026.9521998074
9	11	1	2330.2128008043
9	41	2	2332.0916150269
9	71	3	2335.29700996
9	103	4	2339.7864518947
9	135	5	2345.3632949349
9	167	6	2352.1326775425
9	199	7	2367.5089484738
9	231	8	2376.5631990019
9	263	9	2386.3780111647
9	295	10	2395.8521763811
9	327	11	2411.6647581484
9	359	12	2420.4771139076
9	391	13	2427.5886097527
9	423	14	2432.2145474733
9	455	15	2439.639732824
9	487	16	2441.5745373219
9	519	17	2443.9031714489
9	551	18	2460.0417002542
9	583	19	2464.8703370381
9	615	20	2469.1520800449
9	647	21	2471.8958656867
9	679	22	2470.974425862
9	711	23	2465.3473850977
9	743	24	2459.3870396304
9	805	25	2453.3984202765
9	837	26	2447.3158610394
9	869	27	2433.8176099572
9	901	28	2426.112166915
9	933	29	2418.3999340855
9	965	30	2410.6828518477
9	997	31	2402.9580727302
9	1029	32	2395.2146690643
9	1061	33	2387.1691228312
9	1093	34	2379.1250210653
9	1125	35	2371.0701114993
9	1157	36	2362.9522428113
9	1189	37	2354.3067639632
9	1221	38	2345.6564158224
9	1253	39	2337.0052250203
9	1285	40	2328.3111159196
9	1317	41	2319.2932012345
9	1377	42	2310.2476008008
9	1409	43	2301.0460486336
9	1470	44	2291.5701498978
9	1502	45	2282.0828639994
9	1534	46	2272.3948645897
9	1566	47	2262.5997594768
9	1598	48	2252.8181638443
9	1630	49	2243.0360847202
9	1662	50	2233.2627346454
9	1694	51	2223.5015755198
9	1726	52	2213.7292907634
9	1758	53	2203.8211249295
9	1790	54	2193.8861685324
9	1822	55	2183.839365202
9	1854	56	2173.7705050278
9	1886	57	2163.6954735339
9	1918	58	2153.691903571
9	1950	59	2143.7954787408
9	1982	60	2134.1874528001
9	2014	61	2125.0314378862
9	2046	62	2115.3594756889
9	2078	63	2103.0980475789
9	2110	64	2090.4690711617
9	2142	65	2075.7833626121
9	2174	66	2071.2824134571
9	2206	67	2064.9131586269
9	2238	68	2057.3279013153
9	2270	69	2048.5114596575
9	2302	70	2041.8913210098
9	2362	71	2037.1557755065
9	2394	72	2041.391622811
9	2426	73	2046.4808779984
9	2458	74	2052.4997494704
9	2490	75	2059.3556560659
9	2522	76	2066.5806763588
9	2554	77	2073.1946729168
10	11	1	1551.4637777569
10	41	2	1551.4174881336
10	71	3	1551.3398596412
10	103	4	1551.2305554064
10	135	5	1551.0931630423
10	167	6	1550.9532124573
10	199	7	1550.8132487131
10	231	8	1550.6733168455
10	263	9	1550.5332819797
10	295	10	1550.3933984943
10	327	11	1550.2532761456
10	359	12	1550.1137357992
10	391	13	1549.9740120223
10	423	14	1549.8336537442
10	455	15	1549.6940386374
10	487	16	1549.5739433205
10	519	17	1552.06711843
10	551	18	1554.4121106797
10	583	19	1557.0254014458
10	615	20	1559.5925277408
10	647	21	1562.1552572889
10	679	22	1564.8552783036
10	711	23	1573.3800971113
10	743	24	1576.8866788799
10	805	25	1591.4201833081
10	837	26	1599.7698056522
10	869	27	1608.3245153875
10	901	28	1623.6196234452
10	933	29	1628.0982160887
10	965	30	1643.5941403581
10	997	31	1651.3540869195
10	1029	32	1657.3758723538
10	1061	33	1653.4471771424
10	1093	34	1649.5248354423
10	1125	35	1645.6010724558
10	1157	36	1641.6709396298
10	1189	37	1637.7599296304
10	1221	38	1633.846283212
10	1253	39	1629.9260050348
10	1285	40	1626.0078142631
10	1317	41	1622.4831903924
10	1377	42	1629.9990567249
10	1409	43	1636.5088657251
10	1470	44	1641.5490640053
10	1502	45	1648.265842887
10	1534	46	1655.1602176826
10	1566	47	1662.14080854
10	1598	48	1669.1703064234
10	1630	49	1676.2163273533
10	1662	50	1683.3167031097
10	1694	51	1690.428171811
10	1726	52	1697.5206113283
10	1758	53	1704.6208002261
10	1790	54	1711.7274361868
10	1822	55	1718.8362676337
10	1854	56	1737.7901470527
10	1886	57	1739.8490133024
10	1918	58	1741.9027906001
10	1950	59	1743.7009790219
10	1982	60	1752.1501122769
10	2014	61	1756.7072834458
10	2046	62	1761.2611642909
10	2078	63	1765.8081732138
10	2110	64	1770.367196563
10	2142	65	1774.9150065299
10	2174	66	1779.4803338721
10	2206	67	1784.0334664226
10	2238	68	1788.5813177881
10	2270	69	1800.2967970986
10	2302	70	1805.1582962848
10	2362	71	1810.0231353695
10	2394	72	1814.8716295717
10	2426	73	1819.7354571557
10	2458	74	1824.5583595729
10	2490	75	1829.3107889182
10	2522	76	1834.0651106187
10	2554	77	1838.8219352106
11	11	1	515.63977996976
11	41	2	518.04983423985
11	71	3	522.09153659242
11	103	4	527.78242622951
11	135	5	534.93571523805
11	167	6	542.22219718428
11	199	7	549.50936426433
11	231	8	556.79487169997
11	263	9	564.08574170204
11	295	10	571.36873013743
11	327	11	578.6641549087
11	359	12	585.929277918
11	391	13	593.20395117799
11	423	14	600.51165953658
11	455	15	607.78067492185
11	487	16	614.0333987619
11	519	17	642.34551147048
11	551	18	649.8902691435
11	583	19	658.96145594953
11	615	20	668.63333001824
11	647	21	678.28863895667
11	679	22	687.88719867014
11	711	23	707.40863857759
11	743	24	712.20499754834
11	805	25	725.06977385535
11	837	26	731.54060917287
11	869	27	737.73179971816
11	901	28	748.73023118552
11	933	29	751.94871801358
11	965	30	763.18972799207
11	997	31	768.83458223064
11	1029	32	777.76509492274
11	1061	33	783.99609001604
11	1093	34	790.21700830383
11	1125	35	796.44018078241
11	1157	36	802.67345596342
11	1189	37	808.87640193022
11	1221	38	815.08352931425
11	1253	39	821.30117481033
11	1285	40	827.51550963641
11	1317	41	833.10563889378
11	1377	42	843.85440944173
11	1409	43	847.31917592165
11	1470	44	853.94009850296
11	1502	45	857.04460823974
11	1534	46	859.79363110129
11	1566	47	862.28400913352
11	1598	48	864.59423075776
11	1630	49	866.86827038205
11	1662	50	868.95272925472
11	1694	51	871.04044468564
11	1726	52	873.12257371482
11	1758	53	875.20697773134
11	1790	54	877.29607863817
11	1822	55	879.39912957754
11	1854	56	891.13051590051
11	1886	57	893.2715873363
11	1918	58	895.40736663132
11	1950	59	897.44920279831
11	1982	60	914.37882981908
11	2014	61	919.96175220386
11	2046	62	925.54064366213
11	2078	63	931.11111643106
11	2110	64	936.69630789433
11	2142	65	942.26776201039
11	2174	66	947.86067640139
11	2206	67	953.43865113509
11	2238	68	959.01015596787
11	2270	69	973.3255962078
11	2302	70	979.13654539712
11	2362	71	984.95148676664
11	2394	72	990.74689110068
11	2426	73	996.56062342349
11	2458	74	1002.4116132316
11	2490	75	1008.316185583
11	2522	76	1014.2231090579
11	2554	77	1020.1331422063
12	11	1	3384.4538470488
12	41	2	3386.1166151347
12	71	3	3388.9795708112
12	103	4	3392.8335663387
12	135	5	3387.7011794143
12	167	6	3381.6993344021
12	199	7	3366.2004457221
12	231	8	3357.5262146346
12	263	9	3348.8422420784
12	295	10	3340.1481207235
12	327	11	3331.485028564
12	359	12	3322.8118592589
12	391	13	3314.1398232882
12	423	14	3305.4820856152
12	455	15	3296.8015453893
12	487	16	3288.1168135247
12	519	17	3279.4617147156
12	551	18	3270.7777016563
12	583	19	3262.0837641836
12	615	20	3253.4052777608
12	647	21	3244.7216777617
12	679	22	3236.0475238017
12	711	23	3227.3812519162
12	743	24	3220.9715116379
12	805	25	3216.9663297829
12	837	26	3217.2105511464
12	869	27	3222.1668303329
12	901	28	3227.7970034062
12	933	29	3238.6751763545
12	965	30	3243.4835655457
12	997	31	3248.2884914187
12	1029	32	3253.7608468225
12	1061	33	3259.3316507196
12	1093	34	3271.2990953578
12	1125	35	3277.0743501633
12	1157	36	3282.8366400978
12	1189	37	3288.612575065
12	1221	38	3294.613005301
12	1253	39	3307.5977842566
12	1285	40	3313.4726653921
12	1317	41	3319.3493760655
12	1377	42	3325.2169185523
12	1409	43	3330.845308523
12	1470	44	3334.7432804422
12	1502	45	3331.7259740197
12	1534	46	3327.9667088397
12	1566	47	3324.015641126
12	1598	48	3295.8080565894
12	1630	49	3290.5082557416
12	1662	50	3285.3238647459
12	1694	51	3280.4408210527
12	1726	52	3276.9938087745
12	1758	53	3267.8632520488
12	1790	54	3264.0053892126
12	1822	55	3260.1428871238
12	1854	56	3256.2800667924
12	1886	57	3252.4221467253
12	1918	58	3248.6395663791
12	1950	59	3244.8570330525
12	1982	60	3242.3319585361
12	2014	61	3241.9784584478
12	2046	62	3241.9784584478
12	2078	63	3241.9784584478
12	2110	64	3241.9784584478
12	2142	65	3241.9784584478
12	2174	66	3241.9784584478
12	2206	67	3241.9784584478
12	2238	68	3241.9784584478
12	2270	69	3241.9784584478
12	2302	70	3241.9784584478
12	2362	71	3241.9784584478
12	2394	72	3241.9784584478
12	2426	73	3241.9784584478
12	2458	74	3241.9784584478
12	2490	75	3241.9784584478
12	2522	76	3241.9784584478
12	2554	77	3241.9784584478
13	11	1	2168.6201787654
13	41	2	2167.4674138553
13	71	3	2165.4825821333
13	103	4	2162.8106816767
13	135	5	2162.3554985405
13	167	6	2166.5164614461
13	199	7	2176.7754125696
13	231	8	2182.2911663601
13	263	9	2187.8131145374
13	295	10	2193.3415161137
13	327	11	2198.8501869035
13	359	12	2204.3652655298
13	391	13	2209.8796234935
13	423	14	2215.3848894825
13	455	15	2220.904655116
13	487	16	2226.4270861209
13	519	17	2231.9306741141
13	551	18	2237.4526480464
13	583	19	2242.9809326961
13	615	20	2248.4993923612
13	647	21	2254.0211036376
13	679	22	2259.5368083843
13	711	23	2265.0475010924
13	743	24	2272.79542791
13	805	25	2282.2607400812
13	837	26	2292.1955765641
13	869	27	2301.1412064549
13	901	28	2309.7389891481
13	933	29	2326.2930219197
13	965	30	2333.540789042
13	997	31	2340.7833358457
13	1029	32	2347.5330972716
13	1061	33	2354.2158672782
13	1093	34	2368.238607911
13	1125	35	2374.7155030631
13	1157	36	2381.1778582316
13	1189	37	2387.6555161789
13	1221	38	2393.9149360235
13	1253	39	2406.7843932574
13	1285	40	2412.6382551402
13	1317	41	2418.4939400152
13	1377	42	2424.3404895056
13	1409	43	2429.948742124
13	1470	44	2433.8909906202
13	1502	45	2440.3174846569
13	1534	46	2442.2847528499
13	1566	47	2444.3523935908
13	1598	48	2459.7821708486
13	1630	49	2463.1211467173
13	1662	50	2466.6144310168
13	1694	51	2470.1410736842
13	1726	52	2472.6305825517
13	1758	53	2470.3092509981
13	1790	54	2466.384331339
13	1822	55	2462.4546917886
13	1854	56	2458.524728464
13	1886	57	2454.593608237
13	1918	58	2450.5767388029
13	1950	59	2446.5599193008
13	1982	60	2443.8784442982
13	2014	61	2443.5030487826
13	2046	62	2443.5030487826
13	2078	63	2443.5030487826
13	2110	64	2443.5030487826
13	2142	65	2443.5030487826
13	2174	66	2443.5030487826
13	2206	67	2443.5030487826
13	2238	68	2443.5030487826
13	2270	69	2443.5030487826
13	2302	70	2443.5030487826
13	2362	71	2443.5030487826
13	2394	72	2443.5030487826
13	2426	73	2443.5030487826
13	2458	74	2443.5030487826
13	2490	75	2443.5030487826
13	2522	76	2443.5030487826
13	2554	77	2443.5030487826
14	11	1	891.72117163321
14	41	2	889.52466346458
14	71	3	885.89844926925
14	103	4	880.84555873098
14	135	5	874.27948719986
14	167	6	866.08873331901
14	199	7	856.29013801626
14	231	8	845.37670640292
14	263	9	836.92479034856
14	295	10	831.19145740299
14	327	11	837.52625691179
14	359	12	846.20315779486
14	391	13	856.40642039515
14	423	14	867.53832826796
14	455	15	878.62141595248
14	487	16	888.20751364286
14	519	17	894.32809735031
14	551	18	907.07665852608
14	583	19	915.2060964351
14	615	20	922.15065643401
14	647	21	932.12715003026
14	679	22	940.2644947791
14	711	23	950.0710535972
14	743	24	961.4317468616
14	805	25	982.51543557208
14	837	26	994.91165789978
14	869	27	1007.2943744139
14	901	28	1019.6727316152
14	933	29	1032.069135958
14	965	30	1044.4645987438
14	997	31	1066.0094779576
14	1029	32	1079.4056918306
14	1061	33	1092.7809637586
14	1093	34	1106.1447571909
14	1125	35	1119.4953061997
14	1157	36	1132.86402182
14	1189	37	1146.2035283123
14	1221	38	1159.6049065742
14	1253	39	1173.033729374
14	1285	40	1186.4819759644
14	1317	41	1199.9119500195
14	1377	42	1212.3777447693
14	1409	43	1220.7843261649
14	1470	44	1230.2115700423
14	1502	45	1236.9390975492
14	1534	46	1244.950278607
14	1566	47	1266.3010499001
14	1598	48	1279.5053517963
14	1630	49	1292.7089307842
14	1662	50	1305.8875730083
14	1694	51	1319.0741591214
14	1726	52	1332.2866205533
14	1758	53	1345.4934241494
14	1790	54	1358.6952082724
14	1822	55	1371.9021986637
14	1854	56	1385.0998894727
14	1886	57	1398.3194407554
14	1918	58	1411.5416851067
14	1950	59	1424.7508477529
14	1982	60	1445.0132338135
14	2014	61	1453.753218427
14	2046	62	1468.0249887599
14	2078	63	1474.6551104853
14	2110	64	1482.140556396
14	2142	65	1490.3592151867
14	2174	66	1496.2616497603
14	2206	67	1507.9898587542
14	2238	68	1517.4982335253
14	2270	69	1528.6858537334
14	2302	70	1541.2603785292
14	2362	71	1563.3095323972
14	2394	72	1575.2373724577
14	2426	73	1587.1893861731
14	2458	74	1599.1473925339
14	2490	75	1611.0894795391
14	2522	76	1627.6452615507
14	2554	77	1646.9972094495
15	11	1	1966.2266842408
15	41	2	1966.7090168825
15	71	3	1967.5052995903
15	103	4	1968.614867074
15	135	5	1970.0567149453
15	167	6	1971.8553278589
15	199	7	1973.6078635381
15	231	8	1975.2493879625
15	263	9	1976.2432122129
15	295	10	1976.8778507242
15	327	11	1979.4948380638
15	359	12	1978.4579533271
15	391	13	1976.9216191876
15	423	14	1974.9107773659
15	455	15	1972.4816074625
15	487	16	1970.380544955
15	519	17	1969.0390471561
15	551	18	1965.8657672288
15	583	19	1963.5571381591
15	615	20	1961.5849952792
15	647	21	1962.3784499929
15	679	22	1960.4591152665
15	711	23	1958.1460672802
15	743	24	1955.4664495707
15	805	25	1951.2245053318
15	837	26	1948.9974230807
15	869	27	1946.7727672589
15	901	28	1944.5488946231
15	933	29	1942.3217796715
15	965	30	1940.0948338783
15	997	31	1936.376148185
15	1029	32	1934.4145737925
15	1061	33	1932.4560658772
15	1093	34	1930.3903285721
15	1125	35	1928.2091271003
15	1157	36	1926.0249575827
15	1189	37	1923.8455602279
15	1221	38	1922.1640164501
15	1253	39	1920.6736263865
15	1285	40	1919.1810805847
15	1317	41	1917.6905627496
15	1377	42	1916.6854022185
15	1409	43	1916.0753818986
15	1470	44	1912.4042614041
15	1502	45	1911.908878995
15	1534	46	1911.3085579338
15	1566	47	1909.5744009146
15	1598	48	1907.811236821
15	1630	49	1906.0481692571
15	1662	50	1904.2884314872
15	1694	51	1902.5276329737
15	1726	52	1900.7633793412
15	1758	53	1898.9998811969
15	1790	54	1897.2370533004
15	1822	55	1895.4735302134
15	1854	56	1893.7112488951
15	1886	57	1891.9460485583
15	1918	58	1890.1804886173
15	1950	59	1888.4166754702
15	1982	60	1885.8882457689
15	2014	61	1884.8769312011
15	2046	62	1883.0851634474
15	2078	63	1879.9419870964
15	2110	64	1878.0810099788
15	2142	65	1877.0740899957
15	2174	66	1877.1434397491
15	2206	67	1878.0427918509
15	2238	68	1877.137561641
15	2270	69	1876.2289912726
15	2302	70	1875.2127595523
15	2362	71	1874.1457452016
15	2394	72	1873.7006924886
15	2426	73	1873.7035490885
15	2458	74	1873.7064071206
15	2490	75	1873.7092613479
15	2522	76	1873.3307083819
15	2554	77	1873.4272566944
16	11	1	1500.2811651673
16	41	2	1499.6000040998
16	71	3	1498.4272170983
16	103	4	1496.4464352329
16	135	5	1493.7373085102
16	167	6	1490.4818474629
16	199	7	1487.1893383856
16	231	8	1485.0132609841
16	263	9	1483.6741651558
16	295	10	1486.8487756633
16	327	11	1490.6127480329
16	359	12	1494.6875771654
16	391	13	1496.8588632869
16	423	14	1497.9858027694
16	455	15	1498.1718390522
16	487	16	1498.1718390522
16	519	17	1498.1718390522
16	551	18	1498.1718390522
16	583	19	1498.1718390522
16	615	20	1498.1718390522
16	647	21	1498.1718390522
16	679	22	1498.1718390522
16	711	23	1498.1718390522
16	743	24	1498.1718390522
16	805	25	1498.1718390522
16	837	26	1498.1718390522
16	869	27	1498.1718390522
16	901	28	1498.1718390522
16	933	29	1498.1718390522
16	965	30	1498.1718390522
16	997	31	1498.1718390522
16	1029	32	1498.1718390522
16	1061	33	1498.1718390522
16	1093	34	1498.1718390522
16	1125	35	1498.1718390522
16	1157	36	1498.1718390522
16	1189	37	1498.1718390522
16	1221	38	1498.1718390522
16	1253	39	1498.1718390522
16	1285	40	1498.1718390522
16	1317	41	1498.1718390522
16	1377	42	1498.1718390522
16	1409	43	1498.1718390522
16	1470	44	1498.1718390522
16	1502	45	1498.1718390522
16	1534	46	1502.3202420865
16	1566	47	1503.0110106895
16	1598	48	1504.0759456958
16	1630	49	1505.5218403908
16	1662	50	1507.3606008594
16	1694	51	1521.749004329
16	1726	52	1524.6925564166
16	1758	53	1527.8906652784
16	1790	54	1530.2509669989
16	1822	55	1536.9513415948
16	1854	56	1545.2552674448
16	1886	57	1555.8186373434
16	1918	58	1577.147603595
16	1950	59	1593.4364882705
16	1982	60	1608.8040428174
16	2014	61	1620.1005656457
16	2046	62	1627.3897201187
16	2078	63	1637.8935770731
16	2110	64	1646.2467494839
16	2142	65	1656.24472975
16	2174	66	1667.8420920186
16	2206	67	1690.5511969456
16	2238	68	1704.8408567037
16	2270	69	1719.1138946864
16	2302	70	1733.3729379456
16	2362	71	1754.5357048216
16	2394	72	1772.8065591077
16	2426	73	1781.7475964788
16	2458	74	1800.643147277
16	2490	75	1811.0161323486
16	2522	76	1821.3993000209
16	2554	77	1831.7765065189
17	11	1	1404.6085563151
17	41	2	1401.7987669116
17	71	3	1396.9610205304
17	103	4	1390.493859048
17	135	5	1382.4295764968
17	167	6	1372.7390155132
17	199	7	1362.9381733162
17	231	8	1356.4606236054
17	263	9	1362.8149458525
17	295	10	1372.2693477335
17	327	11	1383.4789456878
17	359	12	1395.6143154043
17	391	13	1404.5022263282
17	423	14	1409.1585916626
17	455	15	1409.9272690509
17	487	16	1409.9272690509
17	519	17	1409.9272690509
17	551	18	1409.9272690509
17	583	19	1409.9272690509
17	615	20	1409.9272690509
17	647	21	1409.9272690509
17	679	22	1409.9272690509
17	711	23	1409.9272690509
17	743	24	1409.9272690509
17	805	25	1409.9272690509
17	837	26	1409.9272690509
17	869	27	1409.9272690509
17	901	28	1409.9272690509
17	933	29	1409.9272690509
17	965	30	1409.9272690509
17	997	31	1409.9272690509
17	1029	32	1409.9272690509
17	1061	33	1409.9272690509
17	1093	34	1409.9272690509
17	1125	35	1409.9272690509
17	1157	36	1409.9272690509
17	1189	37	1409.9272690509
17	1221	38	1409.9272690509
17	1253	39	1409.9272690509
17	1285	40	1409.9272690509
17	1317	41	1409.9272690509
17	1377	42	1409.9272690509
17	1409	43	1409.9272690509
17	1470	44	1409.9272690509
17	1502	45	1409.9272690509
17	1534	46	1412.8150552875
17	1566	47	1413.8055153272
17	1598	48	1415.3324746651
17	1630	49	1417.4056738678
17	1662	50	1420.0421845007
17	1694	51	1436.4853204519
17	1726	52	1440.1666137975
17	1758	53	1448.2176605011
17	1790	54	1454.8239496758
17	1822	55	1465.7377855294
17	1854	56	1469.7620538404
17	1886	57	1471.8004955498
17	1918	58	1478.8413981836
17	1950	59	1479.0117476793
17	1982	60	1479.8197596353
17	2014	61	1480.871644661
17	2046	62	1481.7184591409
17	2078	63	1478.8679892235
17	2110	64	1478.746073807
17	2142	65	1481.9732846573
17	2174	66	1482.908555808
17	2206	67	1484.7867910296
17	2238	68	1484.8280367189
17	2270	69	1484.4327122164
17	2302	70	1483.6016272638
17	2362	71	1481.5428794957
17	2394	72	1479.0032763498
17	2426	73	1478.0579689028
17	2458	74	1474.2326021794
17	2490	75	1473.275302334
17	2522	76	1472.3630921434
17	2554	77	1471.4514056702
18	11	1	834.60253726576
18	41	2	836.47556257976
18	71	3	839.66648438681
18	103	4	844.21705061574
18	135	5	850.09856694053
18	167	6	856.98811411071
18	199	7	863.91505090856
18	231	8	870.82725571177
18	263	9	877.75473473435
18	295	10	883.12996222329
18	327	11	879.6526842117
18	359	12	872.81950425123
18	391	13	865.90878780677
18	423	14	858.99162639024
18	455	15	852.07679600442
18	487	16	845.15877350794
18	519	17	838.23434281786
18	551	18	832.15222397891
18	583	19	828.33528869653
18	615	20	833.31332779859
18	647	21	839.37718669531
18	679	22	846.48620875013
18	711	23	855.40585452559
18	743	24	863.67918704371
18	805	25	861.85376103284
18	837	26	853.68721326926
18	869	27	845.52656994169
18	901	28	837.37419893321
18	933	29	829.19461754613
18	965	30	821.02059264901
18	997	31	812.84426817481
18	1029	32	804.66682708595
18	1061	33	797.4621510443
18	1093	34	782.57199913887
18	1125	35	778.04552836649
18	1157	36	764.21274591312
18	1189	37	756.87000779827
18	1221	38	749.51441643888
18	1253	39	742.17572219708
18	1285	40	734.83273652493
18	1317	41	727.44949739242
18	1377	42	719.79543083677
18	1409	43	712.44485689802
18	1470	44	705.46280187832
18	1502	45	688.213152519
18	1534	46	689.72674593997
18	1566	47	691.57292525932
18	1598	48	693.75548276524
18	1630	49	698.09847702417
18	1662	50	705.52256787526
18	1694	51	711.39666743551
18	1726	52	718.00829926967
18	1758	53	726.44928083335
18	1790	54	734.83253091572
18	1822	55	751.57128851065
18	1854	56	756.51167940377
18	1886	57	762.108699288
18	1918	58	776.77583351281
18	1950	59	785.28805521989
18	1982	60	793.99680671381
18	2014	61	803.54702357496
18	2046	62	815.38812672256
18	2078	63	827.88354683662
18	2110	64	839.4197060176
18	2142	65	839.91932916516
18	2174	66	834.37370613986
18	2206	67	828.65117371863
18	2238	68	812.70864612408
18	2270	69	805.53314175034
18	2302	70	798.35258147932
18	2362	71	791.27501904024
18	2394	72	784.53405255201
18	2426	73	770.12356524653
18	2458	74	763.8317545961
18	2490	75	757.5376691197
18	2522	76	751.2356396005
18	2554	77	743.75708164486
19	11	1	761.66779345798
19	41	2	760.20775908695
19	71	3	757.72041656215
19	103	4	754.17322312478
19	135	5	749.58854617262
19	167	6	744.21810318177
19	199	7	738.8185147538
19	231	8	733.43041000327
19	263	9	728.0303989079
19	295	10	723.84037711414
19	327	11	722.36904927858
19	359	12	727.69652853034
19	391	13	733.08445899399
19	423	14	738.47741427115
19	455	15	743.86855216346
19	487	16	749.26217878041
19	519	17	754.66080153659
19	551	18	759.40271702962
19	583	19	773.02718030007
19	615	20	779.6386384825
19	647	21	787.6922010797
19	679	22	797.13387099626
19	711	23	806.81169481899
19	743	24	815.6854443617
19	805	25	824.96918000915
19	837	26	828.1852046985
19	869	27	831.39890419334
19	901	28	834.60934601024
19	933	29	837.83050340145
19	965	30	841.04947262094
19	997	31	844.26934742464
19	1029	32	847.4896619564
19	1061	33	850.32689706473
19	1093	34	852.88949388724
19	1125	35	854.07196746525
19	1157	36	859.15493902752
19	1189	37	861.89937827342
19	1221	38	864.64862157854
19	1253	39	867.39154937683
19	1285	40	870.13608115033
19	1317	41	872.65770726324
19	1377	42	873.68015520761
19	1409	43	876.42590771478
19	1470	44	879.03400270644
19	1502	45	895.9271898813
19	1534	46	900.20700576128
19	1566	47	905.42723694015
19	1598	48	921.20958281918
19	1630	49	932.88465520501
19	1662	50	952.54819153597
19	1694	51	968.14448002876
19	1726	52	985.36213427587
19	1758	53	1003.7259599935
19	1790	54	1020.8838959598
19	1822	55	1047.3778546389
19	1854	56	1056.322896256
19	1886	57	1064.8797325112
19	1918	58	1083.7741731086
19	1950	59	1095.446524643
19	1982	60	1106.9709312626
19	2014	61	1117.6519585571
19	2046	62	1125.9036254252
19	2078	63	1133.160954464
19	2110	64	1139.4009405139
19	2142	65	1147.4886497593
19	2174	66	1150.3375382798
19	2206	67	1152.842056286
19	2238	68	1159.8751849373
19	2270	69	1163.064653444
19	2302	70	1166.2563692667
19	2362	71	1169.6853370641
19	2394	72	1173.7386877313
19	2426	73	1185.1931364006
19	2458	74	1190.8399042785
19	2490	75	1196.4887137648
19	2522	76	1202.1446528627
19	2554	77	1205.9723923907
20	41	2	3.823456507944
20	71	3	5.6337917703478
20	103	4	7.5472561601521
20	135	5	9.3900482154632
20	167	6	11.494784456947
20	199	7	13.638211269113
20	231	8	15.417714253211
20	263	9	15.408166206955
20	295	10	14.404189906995
20	327	11	9.9664081300741
20	359	12	9.8526237420427
20	391	13	9.965045959029
20	423	14	9.9536377363877
20	455	15	9.8781534399829
20	487	16	9.9617270076057
20	519	17	9.8580141614742
20	551	18	9.9070399892206
20	583	19	9.8860661918313
20	615	20	9.8934834789733
20	647	21	9.9624705501894
20	679	22	9.8536287514858
20	711	23	9.9372541821484
20	743	24	9.9295056810571
20	805	25	9.8736397586988
20	837	26	9.9387736695252
20	869	27	9.9444251532822
20	901	28	9.9730618415556
20	933	29	9.9784471103145
20	965	30	8.3154354523892
20	997	31	3.8642154655165
20	1029	32	0
20	1061	33	0
20	1093	34	0
20	1125	35	0
20	1157	36	0
20	1189	37	0
20	1221	38	0
20	1253	39	0
20	1285	40	0
20	1317	41	0
20	1377	42	0
20	1409	43	0
20	1470	44	0
20	1502	45	0
20	1534	46	2.3716970181983
20	1566	47	4.3851057155506
20	1598	48	6.422159241655
20	1630	49	8.1787047750555
20	1662	50	10.27072553509
20	1694	51	12.214909506068
20	1726	52	14.092651682378
20	1758	53	14.957184774398
20	1790	54	14.950317061765
20	1822	55	14.900144184858
20	1854	56	14.955152174628
20	1886	57	14.841922236066
20	1918	58	14.945009237032
20	1950	59	14.945798256595
20	1982	60	14.926455815325
20	2014	61	14.894563411803
20	2046	62	14.939844371709
20	2078	63	14.919615804676
20	2110	64	14.946258970841
20	2142	65	14.937016613029
20	2174	66	14.951464031229
20	2206	67	14.93031875754
20	2238	68	14.853490673925
20	2270	69	14.956849807461
20	2302	70	14.93879206606
20	2362	71	13.869851563789
20	2394	72	9.4264380072032
20	2426	73	4.9264380072032
20	2458	74	0.42643800720317
20	2490	75	0
20	2522	76	0
20	2554	77	0
21	41	2	3.5494577054596
21	71	3	5.5511473287955
21	103	4	7.4371884507882
21	135	5	9.119378726875
21	167	6	9.1279055869035
21	199	7	9.1383012654321
21	231	8	9.0957999355383
21	263	9	9.2044144409048
21	295	10	9.2008040501448
21	327	11	9.1083913751589
21	359	12	9.1316490985258
21	391	13	9.1625977255232
21	423	14	7.9912611305721
21	455	15	7.7158234209235
21	487	16	9.1537031680616
21	519	17	9.192654441366
21	551	18	9.1159793992448
21	583	19	9.1103297967944
21	615	20	9.2036790547557
21	647	21	9.1194195238492
21	679	22	10.698485931308
21	711	23	12.806712687869
21	743	24	9.938281699396
21	805	25	6.8886559522412
21	837	26	9.063919155966
21	869	27	11.106672835504
21	901	28	13.012104733952
21	933	29	13.747417977371
21	965	30	13.71951762672
21	997	31	13.809565188219
21	1029	32	13.79007505181
21	1061	33	13.750463848109
21	1093	34	13.774617984479
21	1125	35	13.743986082631
21	1157	36	13.685499170755
21	1189	37	13.720462528458
21	1221	38	13.75472146882
21	1253	39	13.802348020696
21	1285	40	13.762192320758
21	1317	41	13.752938553763
21	1377	42	13.730806728168
21	1409	43	13.744950275395
21	1470	44	13.716042462082
21	1502	45	13.796442667858
21	1534	46	13.712493831962
21	1566	47	13.711848671071
21	1598	48	13.758457707681
21	1630	49	13.711573987393
21	1662	50	13.802791661196
21	1694	51	13.724801810614
21	1726	52	13.80358014202
21	1758	53	13.758776197424
21	1790	54	11.426221139505
21	1822	55	6.9262211395051
21	1854	56	8.6131058247756
21	1886	57	10.684370616232
21	1918	58	12.722784977413
21	1950	59	13.770112439228
21	1982	60	13.698270082569
21	2014	61	13.738008464135
21	2046	62	13.795673530455
21	2078	63	13.794614458822
21	2110	64	13.735246816119
21	2142	65	13.803687141007
21	2174	66	13.802980642651
21	2206	67	13.735310264986
21	2238	68	13.694296730922
21	2270	69	13.764478385593
21	2302	70	13.734525324034
21	2362	71	13.715006904797
21	2394	72	13.770101303214
21	2426	73	13.746484229294
21	2458	74	13.727113190954
21	2490	75	13.716971996038
21	2522	76	13.732250548007
21	2554	77	13.70341980488
22	41	2	3.5225016430937
22	71	3	5.3902175229331
22	103	4	7.3485110220135
22	135	5	8.9753359045903
22	167	6	9.0089644147618
22	199	7	9.0029082841426
22	231	8	8.9541174476384
22	263	9	9.0689753867802
22	295	10	9.0357990119699
22	327	11	9.063538872539
22	359	12	9.0161842969595
22	391	13	9.0588409139891
22	423	14	8.9678718595579
22	455	15	7.1604377555203
22	487	16	9.2793911246102
22	519	17	11.220033753091
22	551	18	12.922508073897
22	583	19	13.497319347965
22	615	20	13.575585482523
22	647	21	11.608391743826
22	679	22	7.108391743826
22	711	23	8.0967482151392
22	743	24	10.099940054214
22	805	25	7.6972300317605
22	837	26	8.1353433535428
22	869	27	10.118988227464
22	901	28	12.028092494183
22	933	29	13.544330701136
22	965	30	13.569729629038
22	997	31	13.52410924148
22	1029	32	13.541478309554
22	1061	33	13.491220557226
22	1093	34	13.562391289878
22	1125	35	13.48903160522
22	1157	36	13.577114025929
22	1189	37	13.498722055529
22	1221	38	13.582733530381
22	1253	39	13.554089861645
22	1285	40	13.61083578395
22	1317	41	13.602263065111
22	1377	42	13.561725471965
22	1409	43	13.515768525405
22	1470	44	13.586096837385
22	1502	45	13.593796805793
22	1534	46	13.535391472308
22	1566	47	13.563438307377
22	1598	48	11.078768078648
22	1630	49	6.6139632652903
22	1662	50	8.2122424814774
22	1694	51	10.196952043438
22	1726	52	12.109659136161
22	1758	53	13.553962100788
22	1790	54	13.575530955053
22	1822	55	13.511896736554
22	1854	56	13.534833707102
22	1886	57	13.569741048482
22	1918	58	13.546143516451
22	1950	59	13.556308487444
22	1982	60	13.572584224644
22	2014	61	13.534582086841
22	2046	62	13.568290689518
22	2078	63	13.551237851893
22	2110	64	13.543675493877
22	2142	65	13.494284479003
22	2174	66	13.533978671492
22	2206	67	13.31259707285
22	2238	68	8.8997669654937
22	2270	69	7.2569703822071
22	2302	70	9.1756177332905
22	2362	71	10.817930389884
22	2394	72	6.3482221957961
22	2426	73	8.6850210029319
22	2458	74	10.933620374514
22	2490	75	12.964957611716
22	2522	76	13.499750960183
22	2554	77	13.48647627834
23	41	2	3.6257173583215
23	71	3	5.6988538264531
23	103	4	7.6407245699876
23	135	5	9.6730001790636
23	167	6	11.54314414602
23	199	7	12.181900598673
23	231	8	12.137528596849
23	263	9	12.198295394169
23	295	10	12.25473726359
23	327	11	12.144029872166
23	359	12	12.215678220978
23	391	13	12.146050448132
23	423	14	12.141032909798
23	455	15	12.240666587805
23	487	16	12.189647388079
23	519	17	10.126225867012
23	551	18	6.3362258670122
23	583	19	7.8401702810372
23	615	20	7.8517037158194
23	647	21	7.8936250543329
23	679	22	7.7792520616823
23	711	23	7.8141180829368
23	743	24	7.8878335024849
23	805	25	7.8264978380562
23	837	26	7.8735261965068
23	869	27	7.8521290300241
23	901	28	7.8738048825497
23	933	29	7.8189392221011
23	965	30	7.7953883129046
23	997	31	7.8645060119303
23	1029	32	7.8910324792182
23	1061	33	7.8916183095649
23	1093	34	7.8336701908931
23	1125	35	7.8539821370495
23	1157	36	7.8603313655397
23	1189	37	7.873865961343
23	1221	38	7.7994778290172
23	1253	39	7.8678165052379
23	1285	40	7.7976753887804
23	1317	41	7.7918967838506
23	1377	42	7.8592008869609
23	1409	43	10.048796282637
23	1470	44	12.006630169014
23	1502	45	12.171780598397
23	1534	46	12.212618150863
23	1566	47	12.265952970626
23	1598	48	12.155328304053
23	1630	49	12.24552833268
23	1662	50	12.192669092738
23	1694	51	12.265194316449
23	1726	52	12.137864107581
23	1758	53	12.172873916589
23	1790	54	12.24230227273
23	1822	55	12.177437565108
23	1854	56	12.212266475635
23	1886	57	12.138706152747
23	1918	58	12.216220415274
23	1950	59	9.6943587022824
23	1982	60	7.8413894250234
23	2014	61	7.8825742438519
23	2046	62	7.8883130837944
23	2078	63	7.810433499265
23	2110	64	7.8454474041066
23	2142	65	7.8048336585602
23	2174	66	7.0059821973808
23	2206	67	7.7691858845404
23	2238	68	7.8311877211081
23	2270	69	7.7658010292742
23	2302	70	7.8447622820306
23	2362	71	7.7861661739545
23	2394	72	7.7926669854452
23	2426	73	7.8746210441706
23	2458	74	7.8094537735162
23	2490	75	7.8869717854904
23	2522	76	7.808503918393
23	2554	77	7.8509001952586
24	41	2	3.5635808933811
24	71	3	5.5357368613854
24	103	4	7.3902736322657
24	135	5	9.5955569405579
24	167	6	11.543100562168
24	199	7	13.605298966726
24	231	8	15.614729644594
24	263	9	15.962171452893
24	295	10	15.936315659108
24	327	11	15.974868646639
24	359	12	15.296514823842
24	391	13	10.796514823842
24	423	14	6.3199471646008
24	455	15	8.7330329610846
24	487	16	10.790906556244
24	519	17	12.729820596159
24	551	18	14.52969529486
24	583	19	14.807355317772
24	615	20	10.307355317772
24	647	21	6.517355317772
24	679	22	8.6155353915581
24	711	23	10.316232057811
24	743	24	10.276016978718
24	805	25	10.316638531225
24	837	26	10.253951662326
24	869	27	10.217700617154
24	901	28	10.220584316516
24	933	29	10.30222162509
24	965	30	10.277474081965
24	997	31	10.232590249324
24	1029	32	10.260853538433
24	1061	33	10.304729726681
24	1093	34	10.243153718329
24	1125	35	10.330569277516
24	1157	36	10.218766698822
24	1189	37	10.253112714392
24	1221	38	10.247018787536
24	1253	39	10.249814078749
24	1285	40	10.291634861693
24	1317	41	10.267497768317
24	1377	42	10.331812347496
24	1409	43	10.299961212977
24	1470	44	10.223542489979
24	1502	45	10.295934239176
24	1534	46	10.289023903046
24	1566	47	10.286919043308
24	1598	48	10.260960134583
24	1630	49	10.269536318319
24	1662	50	10.223181722431
24	1694	51	10.269929634483
24	1726	52	10.236683011315
24	1758	53	10.327426869738
24	1790	54	10.231572625124
24	1822	55	10.307038459178
24	1854	56	10.25314270836
24	1886	57	10.302706334401
24	1918	58	10.301156269702
24	1950	59	10.289292706683
24	1982	60	10.221669153468
24	2014	61	10.897751263994
24	2046	62	12.834561759768
24	2078	63	14.645301326854
24	2110	64	11.694450360838
24	2142	65	7.1944503608382
24	2174	66	8.2476912015829
24	2206	67	10.023156625455
24	2238	68	11.978231836798
24	2270	69	11.503441162563
24	2302	70	7.0034411625626
24	2362	71	7.979426302972
24	2394	72	9.8453905964496
24	2426	73	11.796645617289
24	2458	74	13.673580726689
24	2490	75	15.34955347856
24	2522	76	15.438316401598
24	2554	77	15.467674374802
25	41	2	3.6742565394753
25	71	3	5.4813005604014
25	103	4	7.4063694917156
25	135	5	8.4100486526298
25	167	6	8.4070156464805
25	199	7	8.3525848393431
25	231	8	8.347788389985
25	263	9	8.4477645950238
25	295	10	8.4468670572629
25	327	11	8.4322995423325
25	359	12	8.3292942917706
25	391	13	8.3907096202308
25	423	14	8.4277607775768
25	455	15	8.3993542455984
25	487	16	7.3323851410122
25	519	17	9.2198800941076
25	551	18	11.281405616296
25	583	19	13.018694392809
25	615	20	13.131648598484
25	647	21	13.119156947684
25	679	22	13.009445791862
25	711	23	13.016319628466
25	743	24	13.008124435559
25	805	25	13.063679138695
25	837	26	13.11304179153
25	869	27	13.030408761788
25	901	28	13.021231258731
25	933	29	13.094163513452
25	965	30	13.029375040015
25	997	31	12.539083626554
25	1029	32	8.4452704796624
25	1061	33	8.4517009768714
25	1093	34	8.3482426496139
25	1125	35	8.3966979237795
25	1157	36	8.3973649888239
25	1189	37	8.3920959058087
25	1221	38	8.3971599671836
25	1253	39	8.3439285983038
25	1285	40	8.3878929883042
25	1317	41	6.9581161400781
25	1377	42	8.4218323403467
25	1409	43	8.4159432302471
25	1470	44	8.3293561383416
25	1502	45	8.4322880797866
25	1534	46	8.4324680932621
25	1566	47	8.4140278555928
25	1598	48	8.3645561336526
25	1630	49	8.3918390054801
25	1662	50	8.3360620929985
25	1694	51	8.3923579103183
25	1726	52	8.3496343051861
25	1758	53	8.334897045678
25	1790	54	8.43392376226
25	1822	55	8.3554518057462
25	1854	56	8.4418257856821
25	1886	57	8.3906808441258
25	1918	58	8.338347077962
25	1950	59	6.6760019809668
25	1982	60	8.4128689198624
25	2014	61	8.4167059512911
25	2046	62	8.4512447217954
25	2078	63	8.3852845968665
25	2110	64	8.3370315620778
25	2142	65	8.4048834821149
25	2174	66	8.4321806419743
25	2206	67	8.3780900654369
25	2238	68	8.3538986527743
25	2270	69	8.4473552967291
25	2302	70	8.4489990201043
25	2362	71	8.4070468022241
25	2394	72	8.3438558331328
25	2426	73	8.3713383698939
25	2458	74	8.4040120717986
25	2490	75	8.3987664251621
25	2522	76	8.3450575689725
25	2554	77	8.4411604800248
26	41	2	3.7140622864099
26	71	3	5.7347985383792
26	103	4	7.2867985385041
26	135	5	9.2942611414045
26	167	6	10.509129566356
26	199	7	10.560537018835
26	231	8	10.50910791833
26	263	9	10.590195892331
26	295	10	10.498429649371
26	327	11	10.50934900273
26	359	12	10.600323659553
26	391	13	10.567208098721
26	423	14	10.498654013978
26	455	15	10.608710675897
26	487	16	10.601438983175
26	519	17	10.599517855908
26	551	18	10.580199739836
26	583	19	10.530573190046
26	615	20	10.537500842822
26	647	21	10.508477373667
26	679	22	10.595757947726
26	711	23	10.538750273104
26	743	24	10.551191352793
26	805	25	10.590498935504
26	837	26	10.582731300689
26	869	27	10.580604964151
26	901	28	10.539084480133
26	933	29	10.559916384605
26	965	30	10.613257192223
26	997	31	10.492795172437
26	1029	32	10.556659127233
26	1061	33	10.604766743519
26	1093	34	10.612024829603
26	1125	35	10.514004941116
26	1157	36	10.493096344686
26	1189	37	10.601030633963
26	1221	38	10.530472544915
26	1253	39	10.59543252831
26	1285	40	10.565295614871
26	1317	41	10.514645199472
26	1377	42	10.489970245902
26	1409	43	8.8199417322395
26	1470	44	7.1662137915405
26	1502	45	9.0292842673116
26	1534	46	10.598306781245
26	1566	47	10.549191237591
26	1598	48	10.573724420132
26	1630	49	10.517512185973
26	1662	50	10.596896284277
26	1694	51	8.9287926047581
26	1726	52	7.2830516323791
26	1758	53	6.715567168598
26	1790	54	6.7263567298161
26	1822	55	6.7875733653688
26	1854	56	6.8127321148524
26	1886	57	6.7597336087399
26	1918	58	6.8013283605827
26	1950	59	6.74861650859
26	1982	60	2.5860473702278
26	2014	61	0
26	2046	62	0
26	2078	63	0
26	2110	64	0
26	2142	65	0
26	2174	66	0
26	2206	67	0
26	2238	68	0
26	2270	69	0
26	2302	70	0
26	2362	71	0
26	2394	72	0
26	2426	73	0
26	2458	74	0
26	2490	75	0
26	2522	76	0
26	2554	77	0
27	41	2	3.6250404470836
27	71	3	5.3878243405584
27	103	4	7.3109570816837
27	135	5	9.2968713053691
27	167	6	11.371066450288
27	199	7	13.211996742687
27	231	8	13.064245490128
27	263	9	8.5949674016818
27	295	10	7.6521083171259
27	327	11	9.7177548435133
27	359	12	11.777634378675
27	391	13	13.545269100574
27	423	14	14.099549826881
27	455	15	14.044179858874
27	487	16	10.172494822226
27	519	17	6.3874783727827
27	551	18	8.6528262283325
27	583	19	10.621652145886
27	615	20	6.3835878673095
27	647	21	8.6523175933088
27	679	22	10.617641840702
27	711	23	12.567253305487
27	743	24	14.101429721556
27	805	25	14.01286633396
27	837	26	14.120477742668
27	869	27	14.071258361578
27	901	28	14.083121295144
27	933	29	14.120966181419
27	965	30	14.06102126425
27	997	31	14.116757891922
27	1029	32	14.046545359156
27	1061	33	14.023607980052
27	1093	34	14.099967900046
27	1125	35	14.101656392009
27	1157	36	14.117033884145
27	1189	37	14.05910586293
27	1221	38	14.021527897261
27	1253	39	14.133576197288
27	1285	40	14.061409030113
27	1317	41	14.123041818115
27	1377	42	11.234911113998
27	1409	43	6.756918014055
27	1470	44	8.4335741364489
27	1502	45	10.088872425034
27	1534	46	12.004511982109
27	1566	47	13.973362873262
27	1598	48	14.112176701926
27	1630	49	14.123048271007
27	1662	50	14.063585545126
27	1694	51	14.045075239345
27	1726	52	14.117893127125
27	1758	53	14.071249771131
27	1790	54	14.032745831021
27	1822	55	14.035706964723
27	1854	56	14.055170955829
27	1886	57	14.07662454032
27	1918	58	14.119267728747
27	1950	59	14.066167899379
27	1982	60	14.008780280989
27	2014	61	11.176513221251
27	2046	62	6.702863411513
27	2078	63	8.3702897911852
27	2110	64	10.153592211167
27	2142	65	8.5658273669992
27	2174	66	7.6158273669992
27	2206	67	9.4473227838016
27	2238	68	11.502741299915
27	2270	69	13.336340455844
27	2302	70	14.104081019011
27	2362	71	14.020265164442
27	2394	72	14.06575679233
27	2426	73	14.11232922617
27	2458	74	14.128733568703
27	2490	75	14.063317025675
27	2522	76	14.077212621485
27	2554	77	14.081568778345
28	41	2	3.9981468017583
28	71	3	5.9877441594305
28	103	4	7.7718247824393
28	135	5	9.5392743945515
28	167	6	11.41431094289
28	199	7	8.7821005054687
28	231	8	7.1221005054687
28	263	9	9.2612409292635
28	295	10	11.105846644366
28	327	11	13.101080950443
28	359	12	11.917769833839
28	391	13	7.4191701041329
28	423	14	2.9191701041329
28	455	15	0
28	487	16	0
28	519	17	0
28	551	18	0
28	583	19	0
28	615	20	0
28	647	21	0
28	679	22	0
28	711	23	0
28	743	24	0
28	805	25	0
28	837	26	0
28	869	27	0
28	901	28	0
28	933	29	0
28	965	30	0
28	997	31	0
28	1029	32	0
28	1061	33	0
28	1093	34	0
28	1125	35	0
28	1157	36	0
28	1189	37	0
28	1221	38	0
28	1253	39	0
28	1285	40	0
28	1317	41	0
28	1377	42	0
28	1409	43	0
28	1470	44	0
28	1502	45	0
28	1534	46	2.4489243665727
28	1566	47	4.364727642475
28	1598	48	6.1754536942107
28	1630	49	8.0659376439516
28	1662	50	10.189965418015
28	1694	51	12.243231930341
28	1726	52	8.7949799026274
28	1758	53	7.1505959004518
28	1790	54	9.2672112187492
28	1822	55	11.121225985894
28	1854	56	13.078483930657
28	1886	57	14.837002332111
28	1918	58	16.98227654276
28	1950	59	18.873843297654
28	1982	60	15.009949948835
28	2014	61	10.509949948835
28	2046	62	6.7199499488354
28	2078	63	9.0586583340343
28	2110	64	11.023888291573
28	2142	65	13.254117173121
28	2174	66	15.071288216858
28	2206	67	16.898902948293
28	2238	68	16.985047864848
28	2270	69	16.88266115948
28	2302	70	16.890446780076
28	2362	71	16.977818284818
28	2394	72	16.959354022179
28	2426	73	14.897637925959
28	2458	74	11.268503060332
28	2490	75	11.230773956602
28	2522	76	11.28182194799
28	2554	77	11.264307985656
29	41	2	3.5062234341566
29	71	3	5.5384824399723
29	103	4	7.3354523559663
29	135	5	9.4271002360832
29	167	6	10.028140170444
29	199	7	9.9620014016057
29	231	8	9.9486279157113
29	263	9	9.9848671654848
29	295	10	6.9745827615292
29	327	11	9.1371221460037
29	359	12	10.057298448145
29	391	13	9.9388939664356
29	423	14	9.9985441699979
29	455	15	10.044065911503
29	487	16	9.9555413551867
29	519	17	10.018139054969
29	551	18	6.9465854806334
29	583	19	8.5036128064103
29	615	20	10.752847183218
29	647	21	12.673769881213
29	679	22	14.746885979082
29	711	23	15.602590391751
29	743	24	12.383578475693
29	805	25	10.042215465699
29	837	26	9.981621734596
29	869	27	10.000364042353
29	901	28	9.9750390546263
29	933	29	9.9498854290584
29	965	30	9.9845401726739
29	997	31	9.9929430855514
29	1029	32	9.9518989557919
29	1061	33	7.0049400579021
29	1093	34	7.991491965861
29	1125	35	9.9282597081688
29	1157	36	9.931691561123
29	1189	37	10.004194454931
29	1221	38	10.006163736229
29	1253	39	10.007157474571
29	1285	40	9.9992986224342
29	1317	41	10.039259299033
29	1377	42	10.000464426363
29	1409	43	10.000324719824
29	1470	44	8.1147911394083
29	1502	45	7.8747911394083
29	1534	46	10.099112322894
29	1566	47	11.889605952031
29	1598	48	13.734866949064
29	1630	49	15.79783171321
29	1662	50	17.83038236367
29	1694	51	19.799290673158
29	1726	52	21.883984396339
29	1758	53	23.848170157082
29	1790	54	19.682380052447
29	1822	55	15.629479071853
29	1854	56	15.516120038858
29	1886	57	15.630002675977
29	1918	58	15.520234674703
29	1950	59	15.545518661238
29	1982	60	15.595035452902
29	2014	61	15.551563408765
29	2046	62	15.623149963944
29	2078	63	15.564463386802
29	2110	64	12.209286964434
29	2142	65	10.046164987817
29	2174	66	9.9934359651903
29	2206	67	9.9751758707251
29	2238	68	9.957773556661
29	2270	69	10.040657015346
29	2302	70	9.9637578200392
29	2362	71	10.000573901574
29	2394	72	9.963704897287
29	2426	73	9.998698780947
29	2458	74	9.9935521871649
29	2490	75	9.9599686005531
29	2522	76	10.00577037206
29	2554	77	10.041776062777
30	71	3	3315
30	103	4	3317.7052281783
30	135	5	3321.493893038
30	167	6	3324.3249559789
30	199	7	3328.1519707075
30	231	8	3332.9409135003
30	263	9	3338.2295767117
30	295	10	3344.1008098635
30	327	11	3349.5378798148
30	359	12	3354.7973734212
30	391	13	3359.5146922134
30	423	14	3367.7814945414
30	455	15	3373.8482641717
30	487	16	3379.950308701
30	519	17	3385.9373441092
30	551	18	3391.913234717
30	583	19	3397.8943343494
30	615	20	3403.8614975061
30	647	21	3409.845200392
30	679	22	3422.8462282892
30	711	23	3428.5223656101
30	743	24	3434.1918930543
30	805	25	3439.8526229641
30	837	26	3445.5247396808
30	869	27	3451.2026620053
30	901	28	3456.8802963417
30	933	29	3468.7549871875
30	965	30	3473.4152791534
30	997	31	3478.0762768782
30	1029	32	3489.8483954541
30	1061	33	3494.1464743939
30	1093	34	3497.0036933205
30	1125	35	3498.6785616795
30	1157	36	3499.5247113467
30	1189	37	3499.8931618357
30	1221	38	3500.0323914191
30	1253	39	3500.0828402665
30	1285	40	3500.1005357031
30	1317	41	3500.1070583234
30	1377	42	3500.1093756895
30	1409	43	3500.1102060292
30	1470	44	3500.1105002393
30	1502	45	3500.1106063188
30	1534	46	3500.3338576135
30	1566	47	3501.4323518558
30	1598	48	3503.5352594813
30	1630	49	3516.0800895677
30	1662	50	3520.3633856898
30	1694	51	3525.7204099395
30	1726	52	3532.0180728305
30	1758	53	3539.2555803379
30	1790	54	3546.783763416
30	1822	55	3569.388716486
30	1854	56	3579.4289442656
30	1886	57	3589.4927866835
30	1918	58	3599.7376286437
30	1950	59	3609.9905671457
30	1982	60	3620.2426655133
30	2014	61	3630.4909845234
30	2046	62	3648.6315509206
30	2078	63	3657.4824342596
30	2110	64	3664.8522839409
30	2142	65	3665.5052521746
30	2174	66	3666.1582922796
30	2206	67	3666.8106080627
30	2238	68	3667.9172431634
30	2270	69	3668.3567893706
30	2302	70	3668.7965433416
30	2362	71	3669.9600139725
30	2394	72	3673.2207373305
30	2426	73	3673.1817193056
30	2458	74	3672.7242652103
30	2490	75	3672.2756314819
30	2522	76	3671.5187164126
30	2554	77	3671.4122016233
31	71	3	553.33
31	103	4	555.20969576229
31	135	5	549.89586268508
31	167	6	545.92948818252
31	199	7	540.56776576328
31	231	8	533.78164301756
31	263	9	525.21586067609
31	295	10	515.03304747995
31	327	11	503.25185540613
31	359	12	491.3413242069
31	391	13	479.56243858723
31	423	14	470.08272389917
31	455	15	475.19657520088
31	487	16	480.3401607103
31	519	17	485.55680817233
31	551	18	490.81552072325
31	583	19	496.07881715382
31	615	20	501.32984965176
31	647	21	506.59543691437
31	679	22	518.24449650185
31	711	23	523.5016117604
31	743	24	528.75260509455
31	805	25	533.99545034326
31	837	26	539.24884180541
31	869	27	544.50761029561
31	901	28	549.76611205749
31	933	29	560.77606830708
31	965	30	565.09664382744
31	997	31	569.41787365979
31	1029	32	580.31566667826
31	1061	33	584.29698432295
31	1093	34	586.9476865754
31	1125	35	588.50149727244
31	1157	36	589.28648816262
31	1189	37	589.62830745128
31	1221	38	589.75747367196
31	1253	39	589.80427613163
31	1285	40	589.82069256127
31	1317	41	589.82674373371
31	1377	42	589.82889360311
31	1409	43	589.82966392679
31	1470	44	589.82993687167
31	1502	45	589.83003528388
31	1534	46	590.03715021795
31	1566	47	591.05624649203
31	1598	48	593.00715824329
31	1630	49	593.00494360023
31	1662	50	589.47813523879
31	1694	51	585.06723359246
31	1726	52	579.88182275268
31	1758	53	573.92255650874
31	1790	54	567.87704303031
31	1822	55	553.31503078837
31	1854	56	547.59116261493
31	1886	57	541.89505273893
31	1918	58	536.54973666129
31	1950	59	531.20019615783
31	1982	60	525.85109400019
31	2014	61	520.50396374807
31	2046	62	515.56323163403
31	2078	63	518.60617001676
31	2110	64	530.35652036132
31	2142	65	543.24958600946
31	2174	66	556.14407077884
31	2206	67	569.02425358172
31	2238	68	591.00953403429
31	2270	69	599.78047880442
31	2302	70	608.55556940831
31	2362	71	635.51031309076
31	2394	72	643.15217907426
31	2426	73	650.70997051391
31	2458	74	657.80556359312
31	2490	75	662.66251134855
31	2522	76	664.98329237647
31	2554	77	665.28090722905
32	71	3	1.8103352624038
32	103	4	1.9134643898043
32	135	5	1.8427920553111
32	167	6	2.1047362414841
32	199	7	2.1434268121654
32	231	8	1.7795029840986
32	263	9	-0.0095480462559507
32	295	10	-1.0039762999604
32	327	11	-4.4377817769209
32	359	12	-0.11378438803134
32	391	13	0.11242221698631
32	423	14	-0.011408222641331
32	455	15	-0.075484296404756
32	487	16	0.083573567622807
32	519	17	-0.10371284613153
32	551	18	0.049025827746371
32	583	19	-0.020973797389306
32	615	20	0.0074172871420171
32	647	21	0.068987071216107
32	679	22	-0.10884179870365
32	711	23	0.08362543066265
32	743	24	-0.0077485010912639
32	805	25	-0.055865922358352
32	837	26	0.065133910826408
32	869	27	0.0056514837569548
32	901	28	0.028636688273401
32	933	29	0.0053852687589817
32	965	30	-1.6630116579253
32	997	31	-4.4512199868728
32	1029	32	-3.8642154655165
32	1061	33	0
32	1093	34	0
32	1125	35	0
32	1157	36	0
32	1189	37	0
32	1221	38	0
32	1253	39	0
32	1285	40	0
32	1317	41	0
32	1377	42	0
32	1409	43	0
32	1470	44	0
32	1502	45	0
32	1534	46	2.3716970181983
32	1566	47	2.0134086973523
32	1598	48	2.0370535261044
32	1630	49	1.7565455334005
32	1662	50	2.0920207600342
32	1694	51	1.9441839709785
32	1726	52	1.8777421763097
32	1758	53	0.86453309202044
32	1790	54	-0.0068677126336851
32	1822	55	-0.050172876906581
32	1854	56	0.055007989769802
32	1886	57	-0.11322993856156
32	1918	58	0.10308700096561
32	1950	59	0.00078901956323563
32	1982	60	-0.019342441270128
32	2014	61	-0.031892403522505
32	2046	62	0.04528095990652
32	2078	63	-0.020228567032609
32	2110	64	0.026643166164869
32	2142	65	-0.0092423578118908
32	2174	66	0.014447418199852
32	2206	67	-0.02114527368918
32	2238	68	-0.076828083614819
32	2270	69	0.103359133536
32	2302	70	-0.018057741401718
32	2362	71	-1.0689405022707
32	2394	72	-4.4434135565857
32	2426	73	-4.5
32	2458	74	-4.5
32	2490	75	-0.42643800720317
32	2522	76	0
32	2554	77	0
33	71	3	3.8562642931653
33	103	4	4.9941721244841
33	135	5	5.8097023126035
33	167	6	7.6354450151985
33	199	7	9.0472808634776
33	231	8	8.8043525289617
33	263	9	2.1557636001858
33	295	10	0.973
33	327	11	0.973
33	359	12	1.4034659930549
33	391	13	1.9521178813247
33	423	14	1.6538970949327
33	455	15	1.4958646091425
33	487	16	1.8825173932108
33	519	17	1.4276510894664
33	551	18	1.7947960027781
33	583	19	1.6261900758785
33	615	20	1.6944051482736
33	647	21	1.8475671605991
33	679	22	1.4152512437599
33	711	23	1.8802967190881
33	743	24	1.6608960706562
33	805	25	1.5422898223577
33	837	26	1.8361505222823
33	869	27	1.6941106929419
33	901	28	1.751563344045
33	933	29	1.6960936708046
33	965	30	0.973
33	997	31	0.973
33	1029	32	0.973
33	1061	33	0.973
33	1093	34	0.973
33	1125	35	0.973
33	1157	36	0.973
33	1189	37	0.973
33	1221	38	0.973
33	1253	39	0.973
33	1285	40	0.973
33	1317	41	0.973
33	1377	42	0.973
33	1409	43	0.973
33	1470	44	0.973
33	1502	45	0.973
33	1534	46	2.5812552260754
33	1566	47	3.457118465907
33	1598	48	4.5971039368242
33	1630	49	5.0173501062138
33	1662	50	6.8838100498248
33	1694	51	7.5908845291794
33	1726	52	8.4258135823569
33	1758	53	5.2570176209127
33	1790	54	2.115149698382
33	1822	55	1.9542089234389
33	1854	56	2.3386864329777
33	1886	57	1.7229869696977
33	1918	58	2.5106028509235
33	1950	59	2.1422384349111
33	1982	60	2.0676873969724
33	2014	61	2.0192833413854
33	2046	62	2.3017749955929
33	2078	63	2.063780993334
33	2110	64	2.2354171569004
33	2142	65	2.1051586592315
33	2174	66	2.1920790536975
33	2206	67	2.0616073563338
33	2238	68	1.8542435337065
33	2270	69	2.5131826409068
33	2302	70	2.0736125724409
33	2362	71	0.973
33	2394	72	0.973
33	2426	73	0.973
33	2458	74	0.973
33	2490	75	0.973
33	2522	76	0.973
33	2554	77	0.973
34	71	3	2.0016896233358
34	103	4	1.8860411219927
34	135	5	1.6821902760868
34	167	6	0.0085268600285051
34	199	7	0.010395678528585
34	231	8	-0.042501329893712
34	263	9	0.10861450536642
34	295	10	-0.003610390760004
34	327	11	-0.092412674985827
34	359	12	0.023257723366843
34	391	13	0.030948626997414
34	423	14	-1.1713365949511
34	455	15	-0.27543770964863
34	487	16	1.4378797471381
34	519	17	0.038951273304411
34	551	18	-0.076675042121206
34	583	19	-0.0056496024504309
34	615	20	0.093349257961382
34	647	21	-0.084259530906566
34	679	22	1.5790664074593
34	711	23	2.1082267565606
34	743	24	-2.8684309884731
34	805	25	-3.0496257471548
34	837	26	2.1752632037248
34	869	27	2.0427536795381
34	901	28	1.9054318984482
34	933	29	0.73531324341834
34	965	30	-0.027900350650308
34	997	31	0.090047561498359
34	1029	32	-0.019490136408713
34	1061	33	-0.039611203700769
34	1093	34	0.02415413636947
34	1125	35	-0.030631901847663
34	1157	36	-0.058486911875661
34	1189	37	0.034963357702363
34	1221	38	0.034258940361905
34	1253	39	0.047626551876311
34	1285	40	-0.040155699937605
34	1317	41	-0.0092537669953892
34	1377	42	-0.022131825594697
34	1409	43	0.014143547227141
34	1470	44	-0.028907813313417
34	1502	45	0.080400205776094
34	1534	46	-0.083948835895862
34	1566	47	-0.0006451608915814
34	1598	48	0.046609036610462
34	1630	49	-0.046883720287587
34	1662	50	0.091217673802747
34	1694	51	-0.077989850582089
34	1726	52	0.078778331405484
34	1758	53	-0.044803944595625
34	1790	54	-2.3325550579189
34	1822	55	-4.5
34	1854	56	1.6868846852705
34	1886	57	2.071264791456
34	1918	58	2.0384143611812
34	1950	59	1.0473274618157
34	1982	60	-0.071842356659472
34	2014	61	0.039738381565549
34	2046	62	0.057665066320915
34	2078	63	-0.0010590716334988
34	2110	64	-0.059367642703
34	2142	65	0.068440324887632
34	2174	66	-0.0007064983551377
34	2206	67	-0.0676703776652
34	2238	68	-0.041013534064405
34	2270	69	0.070181654670742
34	2302	70	-0.029953061558773
34	2362	71	-0.019518419236411
34	2394	72	0.055094398416113
34	2426	73	-0.023617073919159
34	2458	74	-0.019371038340031
34	2490	75	-0.010141194916796
34	2522	76	0.015278551969677
34	2554	77	-0.028830743127036
35	71	3	4.0715031062076
35	103	4	4.8872405464348
35	135	5	5.3170463408066
35	167	6	1.6393442027896
35	199	7	1.6442231258393
35	231	8	1.5251324421119
35	263	9	1.866994510616
35	295	10	1.6177943168161
35	327	11	1.4163384763309
35	359	12	1.6720375732488
35	391	13	1.691404588644
35	423	14	0.973
35	455	15	0.973
35	487	16	4.7944522238731
35	519	17	1.7115096179897
35	551	18	1.4512849445512
35	583	19	1.6069294814549
35	615	20	1.8330628795207
35	647	21	1.4347975458118
35	679	22	5.8105773864621
35	711	23	8.4287018285086
35	743	24	0.973
35	805	25	0.973
35	837	26	6.3676875068327
35	869	27	7.2402095346153
35	901	28	7.916504539891
35	933	29	4.4493758819748
35	965	30	1.9181350880952
35	997	31	2.3191447117596
35	1029	32	1.9527144501507
35	1061	33	1.8822296289093
35	1093	34	2.0961128466691
35	1125	35	1.9113818545577
35	1157	36	1.8140718736797
35	1189	37	2.1260907263035
35	1221	38	2.127488783864
35	1253	39	2.1771508979391
35	1285	40	1.8814926151584
35	1317	41	1.9830735363133
35	1377	42	1.9382819041389
35	1409	43	2.059791881994
35	1470	44	1.9144793456607
35	1502	45	2.2854571179871
35	1534	46	1.7322532393274
35	1566	47	2.0074831711314
35	1598	48	2.1688461248651
35	1630	49	1.8546608245737
35	1662	50	2.3222054953871
35	1694	51	1.7529503184727
35	1726	52	2.2809210010318
35	1758	53	1.8657686641534
35	1790	54	0.973
35	1822	55	0.973
35	1854	56	5.0860886362281
35	1886	57	7.0714556752568
35	1918	58	8.1641629116316
35	1950	59	5.4911324583449
35	1982	60	1.7710813301936
35	2014	61	2.1438109879173
35	2046	62	2.2097757200318
35	2078	63	2.0144255369078
35	2110	64	1.8154466847188
35	2142	65	2.246542515817
35	2174	66	2.0164413004339
35	2206	67	1.7879683606305
35	2238	68	1.8724970352229
35	2270	69	2.2477161928807
35	2302	70	1.9127473520371
35	2362	71	1.9454175381243
35	2394	72	2.1983094234976
35	2426	73	1.9348541680484
35	2458	74	1.9470638241096
35	2490	75	1.9766046816738
35	2522	76	2.062227911835
35	2554	77	1.9135553837218
36	71	3	1.8677158798394
36	103	4	1.9582934990805
36	135	5	1.6268248825767
36	167	6	0.033628510171548
36	199	7	-0.0060561306192533
36	231	8	-0.048790836504196
36	263	9	0.1148579391418
36	295	10	-0.033176374810283
36	327	11	0.027739860569127
36	359	12	-0.04735457557952
36	391	13	0.04265661702957
36	423	14	-0.090969054431188
36	455	15	-1.8074341040376
36	487	16	2.1189533690899
36	519	17	1.9406426284811
36	551	18	1.7024743208056
36	583	19	0.57481127406854
36	615	20	0.078266134557779
36	647	21	-1.9671937386972
36	679	22	-4.5
36	711	23	0.98835647131315
36	743	24	2.0031918390747
36	805	25	-2.4027100224534
36	837	26	0.43811332178233
36	869	27	1.9836448739213
36	901	28	1.9091042667185
36	933	29	1.5162382069538
36	965	30	0.025398927901405
36	997	31	-0.045620387557427
36	1029	32	0.017369068074039
36	1061	33	-0.050257752328179
36	1093	34	0.071170732651371
36	1125	35	-0.073359684657772
36	1157	36	0.088082420709544
36	1189	37	-0.078391970400698
36	1221	38	0.084011474852449
36	1253	39	-0.028643668736331
36	1285	40	0.056745922304691
36	1317	41	-0.0085727188386961
36	1377	42	-0.040537593145855
36	1409	43	-0.045956946560182
36	1470	44	0.070328311980703
36	1502	45	0.0076999684073957
36	1534	46	-0.058405333484988
36	1566	47	0.028046835069544
36	1598	48	-2.4846702287295
36	1630	49	-4.4648048133576
36	1662	50	1.5982792161871
36	1694	51	1.9847095619608
36	1726	52	1.9127070927224
36	1758	53	1.4443029646278
36	1790	54	0.021568854264915
36	1822	55	-0.063634218499065
36	1854	56	0.022936970547308
36	1886	57	0.034907341380602
36	1918	58	-0.023597532031125
36	1950	59	0.010164970993063
36	1982	60	0.016275737199468
36	2014	61	-0.038002137802541
36	2046	62	0.033708602676633
36	2078	63	-0.017052837624215
36	2110	64	-0.0075623580161466
36	2142	65	-0.049391014873983
36	2174	66	0.039694192488678
36	2206	67	-0.22138159864176
36	2238	68	-4.4128301073566
36	2270	69	-1.6427965832865
36	2302	70	1.9186473510833
36	2362	71	1.6423126565939
36	2394	72	-4.4697081940883
36	2426	73	2.3367988071358
36	2458	74	2.2485993715818
36	2490	75	2.0313372372021
36	2522	76	0.53479334846704
36	2554	77	-0.013274681842885
37	71	3	3.8107336912912
37	103	4	4.9692708067647
37	135	5	5.1286755089246
37	167	6	1.6851509715846
37	199	7	1.5985698135717
37	231	8	1.5029782863139
37	263	9	1.8674279985681
37	295	10	1.5417921790829
37	327	11	1.6765982714302
37	359	12	1.5097521169545
37	391	13	1.7087993098459
37	423	14	1.4126281824516
37	455	15	0.973
37	487	16	6.3701364329402
37	519	17	7.0292900700878
37	551	18	7.2347877571788
37	583	19	3.8580391350771
37	615	20	2.2520766010759
37	647	21	0.973
37	679	22	0.973
37	711	23	3.4782180673067
37	743	24	6.5683377814689
37	805	25	0.973
37	837	26	2.4111610962351
37	869	27	6.5313233345603
[...]
44	679	22	0.087280574059115
44	711	23	-0.057007674621419
44	743	24	0.012441079688724
44	805	25	0.039307582711336
44	837	26	-0.0077676348155364
44	869	27	-0.0021263365377671
44	901	28	-0.041520484017674
44	933	29	0.020831904471851
44	965	30	0.053340807617642
44	997	31	-0.12046201978577
44	1029	32	0.063863954795524
44	1061	33	0.048107616286725
44	1093	34	0.007258086083457
44	1125	35	-0.09801988848718
44	1157	36	-0.020908596429507
44	1189	37	0.1079342892766
44	1221	38	-0.070558089048136
44	1253	39	0.064959983394948
44	1285	40	-0.030136913438328
44	1317	41	-0.050650415399577
44	1377	42	-0.024674953569193
44	1409	43	-1.6700285136629
44	1470	44	-1.653727940699
44	1502	45	1.8630704757711
44	1534	46	1.5690225139338
44	1566	47	-0.049115543654189
44	1598	48	0.024533182540909
44	1630	49	-0.056212234159467
44	1662	50	0.079384098304436
44	1694	51	-1.668103679519
44	1726	52	-1.645740972379
44	1758	53	-0.56748446378111
44	1790	54	0.010789561218116
44	1822	55	0.061216635552701
44	1854	56	0.025158749483525
44	1886	57	-0.052998506112489
44	1918	58	0.041594751842785
44	1950	59	-0.052711851992645
44	1982	60	-4.1625691383622
44	2014	61	-2.5860473702278
44	2046	62	0
44	2078	63	0
44	2110	64	0
44	2142	65	0
44	2174	66	0
44	2206	67	0
44	2238	68	0
44	2270	69	0
44	2302	70	0
44	2362	71	0
44	2394	72	0
44	2426	73	0
44	2458	74	0
44	2490	75	0
44	2522	76	0
44	2554	77	0
45	71	3	4.1969020404599
45	103	4	4.2227533325449
45	135	5	6.1290727640351
45	167	6	4.8010772353101
45	199	7	1.8590773219798
45	231	8	1.5939237684727
45	263	9	1.9375465099774
45	295	10	1.4911566249716
45	327	11	1.7518530298121
45	359	12	1.9638053707661
45	391	13	1.6444335845931
45	423	14	1.5499001764969
45	455	15	2.0134421799823
45	487	16	1.7129041673602
45	519	17	1.7264229641883
45	551	18	1.6805402729162
45	583	19	1.5999261775777
45	615	20	1.7440120867353
45	647	21	1.6506250939771
45	679	22	1.9539097713622
45	711	23	1.5817274722509
45	743	24	1.759136965746
45	805	25	1.8309399495537
45	837	26	1.7101879534607
45	869	27	1.7244082681623
45	901	28	1.6210855053228
45	933	29	1.7812075816884
45	965	30	1.8688564344167
45	997	31	1.418272577309
45	1029	32	1.8904136668058
45	1061	33	1.8546981524651
45	1093	34	1.7508862094274
45	1125	35	1.4761940180558
45	1157	36	1.6700418548892
45	1189	37	2.0072062824364
45	1221	38	1.5467984542491
45	1253	39	1.8968814919352
45	1285	40	1.6518817551975
45	1317	41	1.5962650373735
45	1377	42	1.660289779564
45	1409	43	0.973
45	1470	44	0.973
45	1502	45	5.6677248906079
45	1534	46	5.7388189762227
45	1566	47	1.6024739908781
45	1598	48	1.7918021332996
45	1630	49	1.5823585558321
45	1662	50	1.9338576209424
45	1694	51	0.973
45	1726	52	0.973
45	1758	53	0.973
45	1790	54	1.4800832240127
45	1822	55	1.5664589507639
45	1854	56	1.5091638951439
45	1886	57	1.3782838254146
45	1918	58	1.5353387773608
45	1950	59	1.3782152004479
45	1982	60	0.973
45	2014	61	0.973
45	2046	62	0.973
45	2078	63	0.973
45	2110	64	0.973
45	2142	65	0.973
45	2174	66	0.973
45	2206	67	0.973
45	2238	68	0.973
45	2270	69	0.973
45	2302	70	0.973
45	2362	71	0.973
45	2394	72	0.973
45	2426	73	0.973
45	2458	74	0.973
45	2490	75	0.973
45	2522	76	0.973
45	2554	77	0.973
46	71	3	1.7627838934748
46	103	4	1.9231327411253
46	135	5	1.9859142236854
46	167	6	2.0741951449192
46	199	7	1.8409302923991
46	231	8	-0.14775125255987
46	263	9	-4.4692780884458
46	295	10	-0.94285908455592
46	327	11	2.0656465263874
46	359	12	2.0598795351619
46	391	13	1.7676347218989
46	423	14	0.55428072630675
46	455	15	-0.055369968006852
46	487	16	-3.8716850366485
46	519	17	-3.7850164494428
46	551	18	2.2653478555498
46	583	19	1.9688259175536
46	615	20	-4.2380642785766
46	647	21	2.2687297259993
46	679	22	1.9653242473933
46	711	23	1.9496114647854
46	743	24	1.5341764160687
46	805	25	-0.088563387596514
46	837	26	0.10761140870862
46	869	27	-0.049219381089788
46	901	28	0.011862933565864
46	933	29	0.037844886274542
46	965	30	-0.059944917168467
46	997	31	0.055736627671868
46	1029	32	-0.070212532766163
46	1061	33	-0.022937379104551
46	1093	34	0.076359919994138
46	1125	35	0.0016884919628506
46	1157	36	0.015377492136322
46	1189	37	-0.057928021214902
46	1221	38	-0.037577965669335
46	1253	39	0.11204830002738
46	1285	40	-0.07216716717463
46	1317	41	0.061632788002026
46	1377	42	-2.8881307041173
46	1409	43	-4.4779930999431
46	1470	44	1.6766561223939
46	1502	45	1.6552982885856
46	1534	46	1.9156395570748
46	1566	47	1.9688508911524
46	1598	48	0.13881382866451
46	1630	49	0.010871569081209
46	1662	50	-0.059462725881021
46	1694	51	-0.018510305781383
46	1726	52	0.072817887780257
46	1758	53	-0.04664335599402
46	1790	54	-0.038503940110095
46	1822	55	0.0029611337021915
46	1854	56	0.019463991106022
46	1886	57	0.021453584490811
46	1918	58	0.042643188426736
46	1950	59	-0.053099829368293
46	1982	60	-0.057387618389912
46	2014	61	-2.8322670597372
46	2046	62	-4.4736498097385
46	2078	63	1.6674263796723
46	2110	64	1.7833024199819
46	2142	65	-1.5877648441679
46	2174	66	-0.95
46	2206	67	1.8314954168024
46	2238	68	2.0554185161134
46	2270	69	1.8335991559294
46	2302	70	0.76774056316643
46	2362	71	-0.083815854568966
46	2394	72	0.045491627887822
46	2426	73	0.046572433840485
46	2458	74	0.016404342532622
46	2490	75	-0.065416543027386
46	2522	76	0.013895595809444
46	2554	77	0.0043561568600126
47	71	3	3.6732711830147
47	103	4	4.8872253530665
47	135	5	6.0822438420077
47	167	6	7.4785445817584
47	199	7	7.8220849909985
47	231	8	1.4810071733798
47	263	9	0.973
47	295	10	0.973
47	327	11	6.5012606380096
47	359	12	7.6758555523295
47	391	13	7.7632888057021
47	423	14	3.9325370985764
47	455	15	1.8559784449612
47	487	16	0.973
47	519	17	0.973
47	551	18	6.3112603065439
47	583	19	6.7729251812871
47	615	20	0.973
47	647	21	6.3179994330778
47	679	22	6.7617432911859
47	711	23	7.8044036703638
47	743	24	7.2631036679726
47	805	25	1.741080358834
47	837	26	2.4174655801078
47	869	27	1.879264102842
47	901	28	2.0876625043043
47	933	29	2.1801026610285
47	965	30	1.8419846734845
47	997	31	2.2404989687558
47	1029	32	1.8059450072352
47	1061	33	1.9637497961707
47	1093	34	2.3086171526513
47	1125	35	2.0550519331307
47	1157	36	2.1032211734328
47	1189	37	1.8486487455324
47	1221	38	1.9140743016556
47	1253	39	2.4342745145285
47	1285	40	1.8006002692891
47	1317	41	2.2613022054549
47	1377	42	0.973
47	1409	43	0.973
47	1470	44	4.9800372038692
47	1502	45	5.716273495659
47	1534	46	7.3910211350194
47	1566	47	8.6663823015001
47	1598	48	2.5225119384845
47	1630	49	2.0885293113196
47	1662	50	1.8438461626002
47	1694	51	1.9808235483053
47	1726	52	2.2987491725801
47	1758	53	1.8879990610551
47	1790	54	1.9119940256613
47	1822	55	2.0525310073439
47	1854	56	2.1104480411636
47	1886	57	2.11950955497
47	1918	58	2.1962387805263
47	1950	59	1.8656451808193
47	1982	60	1.8460011814303
47	2014	61	0.973
47	2046	62	0.973
47	2078	63	4.9315561104259
47	2110	64	6.0602795443904
47	2142	65	0.973
47	2174	66	0.973
47	2206	67	5.8135894845301
47	2238	68	7.5034398020337
47	2270	69	7.8657595414607
47	2302	70	4.6591785040854
47	2362	71	1.7577235694943
47	2394	72	2.1998180619744
47	2426	73	2.2088132525213
47	2458	74	2.1079720939319
47	2490	75	1.8236433083361
47	2522	76	2.0939319657052
47	2554	77	2.0620224131399
48	71	3	1.9895973576722
48	103	4	1.7840806230088
48	135	5	1.7674496121122
48	167	6	1.8750365483388
48	199	7	-2.6322104374216
48	231	8	-1.66
48	263	9	2.1391404237947
48	295	10	1.8446057151025
48	327	11	1.9952343060775
48	359	12	-1.1833111166049
48	391	13	-4.4985997297056
48	423	14	-4.5
48	455	15	-2.9191701041329
48	487	16	0
48	519	17	0
48	551	18	0
48	583	19	0
48	615	20	0
48	647	21	0
48	679	22	0
48	711	23	0
48	743	24	0
48	805	25	0
48	837	26	0
48	869	27	0
48	901	28	0
48	933	29	0
48	965	30	0
48	997	31	0
48	1029	32	0
48	1061	33	0
48	1093	34	0
48	1125	35	0
48	1157	36	0
48	1189	37	0
48	1221	38	0
48	1253	39	0
48	1285	40	0
48	1317	41	0
48	1377	42	0
48	1409	43	0
48	1470	44	0
48	1502	45	0
48	1534	46	2.4489243665727
48	1566	47	1.9158032759023
48	1598	48	1.8107260517357
48	1630	49	1.8904839497409
48	1662	50	2.1240277740639
48	1694	51	2.0532665123255
48	1726	52	-3.4482520277135
48	1758	53	-1.6443840021757
48	1790	54	2.1166153182974
48	1822	55	1.8540147671453
48	1854	56	1.9572579447622
48	1886	57	1.7585184014542
48	1918	58	2.1452742106491
48	1950	59	1.8915667548939
48	1982	60	-3.8638933488185
48	2014	61	-4.5
48	2046	62	-3.79
48	2078	63	2.3387083851988
48	2110	64	1.9652299575391
48	2142	65	2.2302288815472
48	2174	66	1.8171710437373
48	2206	67	1.8276147314347
48	2238	68	0.086144916554961
48	2270	69	-0.10238670536783
48	2302	70	0.007785620596259
48	2362	71	0.087371504742187
48	2394	72	-0.018464262639171
48	2426	73	-2.06171609622
48	2458	74	-3.6291348656267
48	2490	75	-0.037729103730525
48	2522	76	0.051047991388476
48	2554	77	-0.017513962334487
49	71	3	4.2897617802794
49	103	4	4.8698785035168
49	135	5	5.7136693460574
49	167	6	6.9559481114885
49	199	7	0.973
49	231	8	0.973
49	263	9	6.4046165482739
49	295	10	6.7093898809724
49	327	11	8.249397691709
49	359	12	0.973
49	391	13	0.973
49	423	14	0.973
49	455	15	0.973
49	487	16	0.973
49	519	17	0.973
49	551	18	0.973
49	583	19	0.973
49	615	20	0.973
49	647	21	0.973
49	679	22	0.973
49	711	23	0.973
49	743	24	0.973
49	805	25	0.973
49	837	26	0.973
49	869	27	0.973
49	901	28	0.973
49	933	29	0.973
49	965	30	0.973
49	997	31	0.973
49	1029	32	0.973
49	1061	33	0.973
49	1093	34	0.973
49	1125	35	0.973
49	1157	36	0.973
49	1189	37	0.973
49	1221	38	0.973
49	1253	39	0.973
49	1285	40	0.973
49	1317	41	0.973
49	1377	42	0.973
49	1409	43	0.973
49	1470	44	0.973
49	1502	45	0.973
49	1534	46	2.6748254215754
49	1566	47	3.3434681712788
49	1598	48	4.1245351261689
49	1630	49	5.2224726865548
49	1662	50	6.915456557796
49	1694	51	7.9285560823128
49	1726	52	0.973
49	1758	53	0.973
49	1790	54	6.3578169182564
49	1822	55	6.7427133778644
49	1854	56	8.116670527036
49	1886	57	8.4154270483356
49	1918	58	11.161689638646
49	1950	59	11.245536462141
49	1982	60	0.973
49	2014	61	0.973
49	2046	62	0.973
49	2078	63	6.7213792578809
49	2110	64	6.9866900602975
49	2142	65	9.0883623297197
49	2174	66	8.7535772110346
49	2206	67	9.8142202959131
49	2238	68	2.7346449486759
49	2270	69	1.9523607971299
49	2302	70	2.4016267525429
49	2362	71	2.7385871047371
49	2394	72	2.3032618012797
49	2426	73	0.973
49	2458	74	0.973
49	2490	75	1.6805127638856
49	2522	76	1.9256814148965
49	2554	77	1.7378792349266
50	71	3	2.0322590058157
50	103	4	1.796969915994
50	135	5	2.0916478801169
50	167	6	0.6010399343612
50	199	7	-0.066138768838719
50	231	8	-0.013373485894407
50	263	9	0.036239249773541
50	295	10	-3.0102844039556
50	327	11	2.1625393844745
50	359	12	0.92017630214086
50	391	13	-0.118404481709
50	423	14	0.059650203562342
50	455	15	0.045521741504782
50	487	16	-0.088524556315971
50	519	17	0.062597699782346
50	551	18	-3.0715535743357
50	583	19	1.5570273257769
50	615	20	2.2492343768082
50	647	21	1.9209226979944
50	679	22	2.0731160978694
50	711	23	0.8557044126689
50	743	24	-3.2190119160578
50	805	25	-2.3413630099943
50	837	26	-0.060593731102999
50	869	27	0.018742307757492
50	901	28	-0.025324987727217
50	933	29	-0.02515362556791
50	965	30	0.034654743615539
50	997	31	0.0084029128775001
50	1029	32	-0.041044129759539
50	1061	33	-2.9469588978898
50	1093	34	0.98655190795893
50	1125	35	1.9367677423079
50	1157	36	0.0034318529541846
50	1189	37	0.072502893807831
50	1221	38	0.0019692812976437
50	1253	39	0.00099373834207661
50	1285	40	-0.0078588521364154
50	1317	41	0.039960676599295
50	1377	42	-0.038794872669969
50	1409	43	-0.00013970653992068
50	1470	44	-1.8855335804153
50	1502	45	-0.24
50	1534	46	2.2243211834854
50	1566	47	1.7904936291371
50	1598	48	1.8452609970327
50	1630	49	2.0629647641466
50	1662	50	2.0325506504602
50	1694	51	1.9689083094872
50	1726	52	2.0846937231813
50	1758	53	1.964185760743
50	1790	54	-4.1657901046343
50	1822	55	-4.0529009805946
50	1854	56	-0.11335903299507
50	1886	57	0.11388263711939
50	1918	58	-0.10976800127421
50	1950	59	0.025283986534923
50	1982	60	0.049516791664065
50	2014	61	-0.043472044137307
50	2046	62	0.071586555179675
50	2078	63	-0.058686577142216
50	2110	64	-3.3551764223677
50	2142	65	-2.1631219766178
50	2174	66	-0.052729022626298
50	2206	67	-0.018260094465223
50	2238	68	-0.017402314064093
50	2270	69	0.082883458684664
50	2302	70	-0.076899195306469
50	2362	71	0.036816081535072
50	2394	72	-0.036869004287292
50	2426	73	0.034993883660063
50	2458	74	-0.0051465937821185
50	2490	75	-0.033583586611785
50	2522	76	0.045801771506666
50	2554	77	0.03600569071714
51	71	3	4.1054778315788
51	103	4	4.677087821507
51	135	5	6.3942372632051
51	167	6	3.1395007887329
51	199	7	1.5231079873174
51	231	8	1.6488197550759
51	263	9	1.770834547037
51	295	10	0.973
51	327	11	6.3832563858246
51	359	12	3.9194715577882
51	391	13	1.3965368690023
51	423	14	1.8284043722619
51	455	15	1.798322069464
51	487	16	1.4690118713087
51	519	17	1.8372916231742
51	551	18	0.973
51	583	19	4.767944991162
51	615	20	7.5723178732854
51	647	21	7.7766650049693
51	679	22	9.4855038357078
51	711	23	5.4311928667106
51	743	24	0.973
51	805	25	0.973
51	837	26	1.5376214063804
51	869	27	1.729977136755
51	901	28	1.6220038542673
51	933	29	1.6206630013957
51	965	30	1.7669941263349
51	997	31	1.704479748536
51	1029	32	1.5826912765736
51	1061	33	0.973
51	1093	34	3.442706031365
51	1125	35	6.3134688579261
51	1157	36	1.6878177749663
51	1189	37	1.8599027776011
51	1221	38	1.6899960368776
51	1253	39	1.6877192819828
51	1285	40	1.665787103916
51	1317	41	1.7844483628729
51	1377	42	1.591314170163
51	1409	43	1.6844668402583
51	1470	44	0.973
51	1502	45	0.973
51	1534	46	7.1060784811289
51	1566	47	6.96929168475
51	1598	48	8.1199307845359
51	1630	49	10.09058774776
51	1662	50	11.227922408811
51	1694	51	12.17702188724
51	1726	52	14.128612571282
51	1758	53	14.802376599052
51	1790	54	0.973
51	1822	55	0.973
51	1854	56	1.7796863951537
51	1886	57	2.6457039884551
51	1918	58	1.7934788900929
51	1950	59	2.3016885549986
51	1982	60	2.3987825313929
51	2014	61	2.0447294148113
51	2046	62	2.4854692603616
51	2078	63	1.9890116525044
51	2110	64	0.973
51	2142	65	0.973
51	2174	66	1.5572869061074
51	2206	67	1.6389975182891
51	2238	68	1.6398140805248
51	2270	69	1.8884327723367
51	2302	70	1.4973743944005
51	2362	71	1.7735543193822
51	2394	72	1.5934939776266
51	2426	73	1.7690043380935
51	2458	74	1.6718939665782
51	2490	75	1.6011303399378
51	2522	76	1.7956632172044
51	2554	77	1.7750929895118
52	103	4	2.2615134208564
52	135	5	4.3302987156598
52	167	6	6.2758017303468
52	199	7	8.1976042432593
52	231	8	10.105502567161
52	263	9	11.961711736154
52	295	10	13.938153779467
52	327	11	14.534158220328
52	359	12	14.436008098846
52	391	13	13.692052856733
52	423	14	9.3655780861411
52	455	15	9.2557333628531
52	487	16	9.3662130654883
52	519	17	9.2791826647288
52	551	18	9.2869931246551
52	583	19	9.3092057310185
52	615	20	9.2954355155794
52	647	21	9.3338886776358
52	679	22	9.2968406936155
52	711	23	9.2936558730366
52	743	24	9.2499878727925
52	805	25	9.2608657522035
52	837	26	9.332752411929
52	869	27	9.307163812765
52	901	28	9.3218896596996
52	933	29	9.3143668158702
52	965	30	9.2976494122181
52	997	31	9.3151510984638
52	1029	32	9.2680352578522
52	1061	33	6.9305136473908
52	1093	34	4.3996922479334
52	1125	35	2.3522660500072
52	1157	36	1.1091499141084
52	1189	37	0.45322077040614
52	1221	38	0.16115541309611
52	1253	39	0.058231686530531
52	1285	40	0.020579631351947
52	1317	41	0.0076254246592764
52	1377	42	0.0027105379311437
52	1409	43	0.00093314421078435
52	1470	44	0.00034559525449341
52	1502	45	0.00012089023151091
52	1534	46	1.0862972165633
52	1566	47	2.9536490316651
52	1598	48	4.9065961331437
52	1630	49	6.8378979168412
52	1662	50	8.98136255312
52	1694	51	10.774019406951
52	1726	52	12.619336960489
52	1758	53	13.865187213523
52	1790	54	14.044030517463
52	1822	55	14.014288974265
52	1854	56	14.044467622228
52	1886	57	14.047946684384
52	1918	58	13.965856559146
52	1950	59	14.031167296684
52	1982	60	13.978042946768
52	2014	61	14.000258862693
52	2046	62	14.033632073349
52	2078	63	13.962302731227
52	2110	64	13.943445654812
52	2142	65	13.998283975553
52	2174	66	14.046462019566
52	2206	67	14.009173750645
52	2238	68	13.975062311404
52	2270	69	14.057016771815
52	2302	70	14.00654828198
52	2362	71	14.039948846842
52	2394	72	13.97176309071
52	2426	73	13.958675526935
52	2458	74	11.500827265634
52	2490	75	7.0047132332386
52	2522	76	2.5173307460144
52	2554	77	0
53	135	5	2.0687852948034
53	167	6	1.945503014687
53	199	7	1.9218025129125
53	231	8	1.9078983239015
53	263	9	1.8562091689929
53	295	10	1.9764420433133
53	327	11	0.59600444086054
53	359	12	-0.098150121481158
53	391	13	-0.74395524211296
53	423	14	-4.3264747705923
53	455	15	-0.10984472328797
53	487	16	0.1104797026352
53	519	17	-0.08703040075954
53	551	18	0.0078104599262581
53	583	19	0.022212606363464
53	615	20	-0.013770215439143
53	647	21	0.038453162056394
53	679	22	-0.037047984020319
53	711	23	-0.0031848205789
53	743	24	-0.04366800024407
53	805	25	0.010877879410982
53	837	26	0.071886659725569
53	869	27	-0.025588599164038
53	901	28	0.014725846934597
53	933	29	-0.0075228438293564
53	965	30	-0.016717403652146
53	997	31	0.017501686245669
53	1029	32	-0.047115840611514
53	1061	33	-2.3375216104615
53	1093	34	-2.5308213994574
53	1125	35	-2.0474261979262
53	1157	36	-1.2431161358988
53	1189	37	-0.65592914370222
53	1221	38	-0.29206535731003
53	1253	39	-0.10292372656558
53	1285	40	-0.037652055178584
53	1317	41	-0.012954206692671
53	1377	42	-0.0049148867281326
53	1409	43	-0.0017773937203594
53	1470	44	-0.00058754895629094
53	1502	45	-0.0002247050229825
53	1534	46	1.0861763263318
53	1566	47	1.8673518151018
53	1598	48	1.9529471014786
53	1630	49	1.9313017836975
53	1662	50	2.1434646362788
53	1694	51	1.7926568538309
53	1726	52	1.845317553538
53	1758	53	1.2458502530336
53	1790	54	0.1788433039406
53	1822	55	-0.029741543198469
53	1854	56	0.030178647963329
53	1886	57	0.0034790621558205
53	1918	58	-0.08209012523759
53	1950	59	0.065310737537219
53	1982	60	-0.053124349915889
53	2014	61	0.022215915925337
53	2046	62	0.03337321065599
53	2078	63	-0.071329342122189
53	2110	64	-0.018857076414861
53	2142	65	0.054838320740965
53	2174	66	0.048178044012747
53	2206	67	-0.037288268920966
53	2238	68	-0.034111439241096
53	2270	69	0.081954460411797
53	2302	70	-0.050468489835039
53	2362	71	0.03340056486195
53	2394	72	-0.068185756132007
53	2426	73	-0.013087563775478
53	2458	74	-2.4578482613003
53	2490	75	-4.4961140323958
53	2522	76	-4.4873824872243
53	2554	77	-2.5173307460144
54	135	5	3.4853831841187
54	167	6	4.3780900639914
54	199	7	5.3530990766427
54	231	8	6.3393685523487
54	263	9	7.1961693526921
54	295	10	8.6715762980979
54	327	11	4.1823952836997
54	359	12	1.7428374227166
54	391	13	0.973
54	423	14	0.973
54	455	15	1.3847230410692
54	487	16	1.8871112614232
54	519	17	1.4368108968757
54	551	18	1.6494799147441
54	583	19	1.6834369540613
54	615	20	1.6017600170471
54	647	21	1.7218867741106
54	679	22	1.5497020539015
54	711	23	1.6253463269689
54	743	24	1.5319859187599
54	805	25	1.6543936721104
54	837	26	1.7969923993477
54	869	27	1.5760591212847
54	901	28	1.6676022027325
54	933	29	1.6170885553285
54	965	30	1.5953086316025
54	997	31	1.6733226800209
54	1029	32	1.5253942930461
54	1061	33	0.973
54	1093	34	0.973
54	1125	35	0.973
54	1157	36	0.973
54	1189	37	0.973
54	1221	38	0.973
54	1253	39	0.973
54	1285	40	1.1108060196565
54	1317	41	1.1103440442267
54	1377	42	1.1101275457528
54	1409	43	1.1100446151627
54	1470	44	1.110016622579
54	1502	45	1.1100058251981
54	1534	46	1.4468797831096
54	1566	47	2.5841003792842
54	1598	48	3.666946200251
54	1630	49	4.652052148242
54	1662	50	6.2497347815832
54	1694	51	6.3999745259236
54	1726	52	7.5164922532346
54	1758	53	6.1881129272997
54	1790	54	2.6486859699885
54	1822	55	1.9398635129559
54	1854	56	2.1455620456664
54	1886	57	2.0555524867009
54	1918	58	1.7590538581869
54	1950	59	2.2628968966362
54	1982	60	1.8576371865128
54	2014	61	2.1138320819145
54	2046	62	2.1551730169553
54	2078	63	1.7949697992373
54	2110	64	1.9696931333048
54	2142	65	2.223673479909
54	2174	66	2.2067133065001
54	2206	67	1.9138957630032
54	2238	68	1.9214054923743
54	2270	69	2.3223483368513
54	2302	70	1.8691590660951
54	2362	71	2.1559660251853
54	2394	72	1.806360064544
54	2426	73	1.9905889798344
54	2458	74	0.973
54	2490	75	0.973
54	2522	76	0.973
54	2554	77	0.973

