file 5473 1721878557                                            
version 2
run DOSAttack-0-20240724-20:25:57-2273
attr configname DOSAttack
attr datetime 20240724-20:25:57
attr experiment DOSAttack
attr inifile omnetpp.ini
attr iterationvars ""
attr iterationvarsf ""
attr measurement ""
attr network RSUExampleScenario
attr processid 2273
attr repetition 0
attr replication #0
attr resultdir results
attr runnumber 0
attr seedset 0
param *.attackNetwork.attacker[0].numAttackPackets 10000
param *.attackNetwork.attacker[0].attackInterval 0.01s
param *.attackNetwork.attacker[0].targetNodeAddress 0
param *.attackNetwork.attacker[1].numAttackPackets 10000
param *.attackNetwork.attacker[1].attackInterval 0.01s
param *.attackNetwork.attacker[1].targetNodeAddress 0
param *.attackNetwork.attacker[2].numAttackPackets 10000
param *.attackNetwork.attacker[2].attackInterval 0.01s
param *.attackNetwork.attacker[2].targetNodeAddress 0
param *.car[*].numAttackPackets 1000
param *.car[*].attackInterval 0.1s
param **.car[*].pdrSignal.statistics true
param **.car[*].delaySignal.statistics true
param **.car[*].throughputSignal.statistics true
param **.car[*].collisionRateSignal.statistics true
param **.node[*].pdrSignal.statistics true
param **.node[*].delaySignal.statistics true
param **.node[*].throughputSignal.statistics true
param **.node[*].collisionRateSignal.statistics true
param **.rsu[*].pdrSignal.statistics true
param **.rsu[*].delaySignal.statistics true
param **.rsu[*].throughputSignal.statistics true
param **.rsu[*].collisionRateSignal.statistics true
param *.attackNetwork.attacker[0].targetNodeAddress 1
param *.attackNetwork.attacker[1].targetNodeAddress 1
param *.attackNetwork.attacker[2].targetNodeAddress 1
param *.playgroundSizeX 4705m
param *.playgroundSizeY 3350m
param *.playgroundSizeZ 50m
param *.annotations.draw true
param *.obstacles.obstacles "xmldoc(\"config.xml\", \"//AnalogueModel[@type='SimpleObstacleShadowing']/obstacles\")"
param *.manager.updateInterval 1s
param *.manager.host "\"localhost\""
param *.manager.port 9999
param *.manager.autoShutdown true
param *.manager.launchConfig "xmldoc(\"bristol.launchd.xml\")"
param *.rsu[0].mobility.x 2000
param *.rsu[0].mobility.y 2000
param *.rsu[0].mobility.z 3
param *.rsu[*].applType "\"TraCIDoSRSU11p\""
param *.rsu[*].appl.headerLength "80 bit"
param *.rsu[*].appl.sendBeacons true
param *.rsu[*].appl.dataOnSch false
param *.rsu[*].appl.beaconInterval 1s
param *.rsu[*].appl.beaconUserPriority 7
param *.rsu[*].appl.dataUserPriority 5
param *.rsu[*].nic.phy80211p.antennaOffsetZ "0 m"
param *.rsu[0].appl.psid 42
param *.connectionManager.sendDirect true
param *.connectionManager.maxInterfDist 2600m
param *.connectionManager.drawMaxIntfDist false
param *.**.nic.mac1609_4.useServiceChannel false
param *.**.nic.mac1609_4.txPower 20mW
param *.**.nic.mac1609_4.bitrate 6Mbps
param *.**.nic.phy80211p.minPowerLevel -110dBm
param *.**.nic.phy80211p.useNoiseFloor true
param *.**.nic.phy80211p.noiseFloor -98dBm
param *.**.nic.phy80211p.decider "xmldoc(\"config.xml\")"
param *.**.nic.phy80211p.analogueModels "xmldoc(\"config.xml\")"
param *.**.nic.phy80211p.usePropagationDelay true
param *.**.nic.phy80211p.antenna "xmldoc(\"antenna.xml\", \"/root/Antenna[@id='monopole']\")"
param *.node[*].nic.phy80211p.antennaOffsetY "0 m"
param *.node[*].nic.phy80211p.antennaOffsetZ "1.895 m"
param *.node[*].applType "\"TraCIDoSmo11p\""
param *.node[*].appl.headerLength "80 bit"
param *.node[*].appl.sendBeacons false
param *.node[*].appl.dataOnSch false
param *.node[*].appl.beaconInterval 1s
param *.node[*].veinsmobility.x 0
param *.node[*].veinsmobility.y 0
param *.node[*].veinsmobility.z 0
param *.node[*].veinsmobility.setHostSpeed false
param *.node[*0].veinsmobility.accidentCount 1
param *.node[*0].veinsmobility.accidentStart 120s
param *.node[*0].veinsmobility.accidentDuration 50s

vector 0 RSUExampleScenario.node[0].veinsmobility posx ETV
vector 1 RSUExampleScenario.node[0].veinsmobility posy ETV
vector 2 RSUExampleScenario.node[1].veinsmobility posx ETV
vector 3 RSUExampleScenario.node[1].veinsmobility posy ETV
vector 4 RSUExampleScenario.node[2].veinsmobility posx ETV
vector 5 RSUExampleScenario.node[2].veinsmobility posy ETV
vector 6 RSUExampleScenario.node[3].veinsmobility posx ETV
vector 7 RSUExampleScenario.node[3].veinsmobility posy ETV
vector 8 RSUExampleScenario.node[4].veinsmobility posx ETV
vector 9 RSUExampleScenario.node[4].veinsmobility posy ETV
vector 10 RSUExampleScenario.node[5].veinsmobility posx ETV
vector 11 RSUExampleScenario.node[5].veinsmobility posy ETV
vector 12 RSUExampleScenario.node[6].veinsmobility posx ETV
vector 13 RSUExampleScenario.node[6].veinsmobility posy ETV
vector 14 RSUExampleScenario.node[7].veinsmobility posx ETV
vector 15 RSUExampleScenario.node[7].veinsmobility posy ETV
vector 16 RSUExampleScenario.node[8].veinsmobility posx ETV
vector 17 RSUExampleScenario.node[8].veinsmobility posy ETV
vector 18 RSUExampleScenario.node[9].veinsmobility posx ETV
vector 19 RSUExampleScenario.node[9].veinsmobility posy ETV
0	5003 23 11 11 1 1 1 3317.6974435821 3317.6974435821 3317.6974435821 11007116.327151
1	5026 23 11 11 1 1 1 555.22007522392 555.22007522392 555.22007522392 308269.33193165
2	5049 23 11 11 1 1 1 3133.5092980678 3133.5092980678 3133.5092980678 9818880.5210773
3	5072 23 11 11 1 1 1 917.83876565813 917.83876565813 917.83876565813 842427.99974484
4	5095 23 11 11 1 1 1 739.63611667643 739.63611667643 739.63611667643 547061.58509219
5	5118 23 11 11 1 1 1 1908.1697892473 1908.1697892473 1908.1697892473 3641111.944596
6	5141 23 11 11 1 1 1 1886.6471631102 1886.6471631102 1886.6471631102 3559437.5180719
7	5164 23 11 11 1 1 1 2656.1954913976 2656.1954913976 2656.1954913976 7055374.4885212
8	5187 22 11 11 1 1 1 3241.275676909 3241.275676909 3241.275676909 10505868.013722
9	5209 23 11 11 1 1 1 2330.2128008043 2330.2128008043 2330.2128008043 5429891.6970321
10	5232 24 11 11 1 1 1 1551.4637777569 1551.4637777569 1551.4637777569 2407039.8536917
11	5256 24 11 11 1 1 1 515.63977996976 515.63977996976 515.63977996976 265884.38268726
12	5280 24 11 11 1 1 1 3384.4538470488 3384.4538470488 3384.4538470488 11454527.842803
13	5304 24 11 11 1 1 1 2168.6201787654 2168.6201787654 2168.6201787654 4702913.4797485
14	5328 24 11 11 1 1 1 891.72117163321 891.72117163321 891.72117163321 795166.6479389
15	5352 24 11 11 1 1 1 1966.2266842408 1966.2266842408 1966.2266842408 3866047.3738205
16	5376 24 11 11 1 1 1 1500.2811651673 1500.2811651673 1500.2811651673 2250843.5745558
17	5400 24 11 11 1 1 1 1404.6085563151 1404.6085563151 1404.6085563151 1972925.1964737
18	5424 24 11 11 1 1 1 834.60253726576 834.60253726576 834.60253726576 696561.39521044
19	5448 24 11 11 1 1 1 761.66779345798 761.66779345798 761.66779345798 580137.82759115

