version 2
run RSUMessageSending-0-20240804-19:12:22-4590
attr configname RSUMessageSending
attr datetime 20240804-19:12:22
attr experiment RSUMessageSending
attr inifile omnetpp.ini
attr iterationvars ""
attr iterationvarsf ""
attr measurement ""
attr network ddossimo.simulations.RSUmessage.RSUExampleScenario
attr processid 4590
attr repetition 0
attr replication #0
attr resultdir results
attr runnumber 0
attr seedset 0
param *.rsu.applType "\"RSUMessage\""
param *.rsu.appl.messageContent "\"This is a message from RSU.\""
param *.rsu.appl.messageInterval 1s
param **.car[*].pdrSignal.statistics true
param **.car[*].delaySignal.statistics true
param **.car[*].throughputSignal.statistics true
param **.car[*].collisionRateSignal.statistics true
param **.node[*].pdrSignal.statistics true
param **.node[*].delaySignal.statistics true
param **.node[*].throughputSignal.statistics true
param **.node[*].collisionRateSignal.statistics true
param **.rsu[*].pdrSignal.statistics true
param **.rsu[*].delaySignal.statistics true
param **.rsu[*].throughputSignal.statistics true
param **.rsu[*].collisionRateSignal.statistics true
param *.playgroundSizeX 4705m
param *.playgroundSizeY 3350m
param *.playgroundSizeZ 50m
param *.annotations.draw true
param *.obstacles.obstacles "xmldoc(\"config.xml\", \"//AnalogueModel[@type='SimpleObstacleShadowing']/obstacles\")"
param *.manager.updateInterval 1s
param *.manager.host "\"localhost\""
param *.manager.port 9999
param *.manager.autoShutdown true
param *.manager.launchConfig "xmldoc(\"bristol.launchd.xml\")"
param *.rsu[0].mobility.x 2000
param *.rsu[0].mobility.y 2000
param *.rsu[0].mobility.z 3
param *.rsu[*].applType "\"TraCIDemoRSU11p\""
param *.rsu[*].appl.headerLength "80 bit"
param *.rsu[*].appl.sendBeacons false
param *.rsu[*].appl.dataOnSch false
param *.rsu[*].appl.beaconInterval 1s
param *.rsu[*].appl.beaconUserPriority 7
param *.rsu[*].appl.dataUserPriority 5
param *.rsu[*].nic.phy80211p.antennaOffsetZ "0 m"
param *.connectionManager.sendDirect true
param *.connectionManager.maxInterfDist 2600m
param *.connectionManager.drawMaxIntfDist false
param *.**.nic.mac1609_4.useServiceChannel false
param *.**.nic.mac1609_4.txPower 20mW
param *.**.nic.mac1609_4.bitrate 6Mbps
param *.**.nic.phy80211p.minPowerLevel -110dBm
param *.**.nic.phy80211p.useNoiseFloor true
param *.**.nic.phy80211p.noiseFloor -98dBm
param *.**.nic.phy80211p.decider "xmldoc(\"config.xml\")"
param *.**.nic.phy80211p.analogueModels "xmldoc(\"config.xml\")"
param *.**.nic.phy80211p.usePropagationDelay true
param *.**.nic.phy80211p.antenna "xmldoc(\"antenna.xml\", \"/root/Antenna[@id='monopole']\")"
param *.node[*].nic.phy80211p.antennaOffsetY "0 m"
param *.node[*].nic.phy80211p.antennaOffsetZ "1.895 m"
param *.node[*].applType "\"TraCIDoSmo11p\""
param *.node[*].appl.headerLength "80 bit"
param *.node[*].appl.sendBeacons false
param *.node[*].appl.dataOnSch false
param *.node[*].appl.beaconInterval 1s
param *.node[*].veinsmobility.x 0
param *.node[*].veinsmobility.y 0
param *.node[*].veinsmobility.z 0
param *.node[*].veinsmobility.setHostSpeed false
param *.node[*0].veinsmobility.accidentCount 1
param *.node[*0].veinsmobility.accidentStart 120s
param *.node[*0].veinsmobility.accidentDuration 50s
param *.numCars 20

vector 0 RSUExampleScenario.node[0].veinsmobility posx ETV
vector 1 RSUExampleScenario.node[0].veinsmobility posy ETV
vector 2 RSUExampleScenario.node[1].veinsmobility posx ETV
vector 3 RSUExampleScenario.node[1].veinsmobility posy ETV
vector 4 RSUExampleScenario.node[2].veinsmobility posx ETV
vector 5 RSUExampleScenario.node[2].veinsmobility posy ETV
vector 6 RSUExampleScenario.node[3].veinsmobility posx ETV
vector 7 RSUExampleScenario.node[3].veinsmobility posy ETV
vector 8 RSUExampleScenario.node[4].veinsmobility posx ETV
vector 9 RSUExampleScenario.node[4].veinsmobility posy ETV
vector 10 RSUExampleScenario.node[5].veinsmobility posx ETV
vector 11 RSUExampleScenario.node[5].veinsmobility posy ETV
vector 12 RSUExampleScenario.node[6].veinsmobility posx ETV
vector 13 RSUExampleScenario.node[6].veinsmobility posy ETV
vector 14 RSUExampleScenario.node[7].veinsmobility posx ETV
vector 15 RSUExampleScenario.node[7].veinsmobility posy ETV
vector 16 RSUExampleScenario.node[8].veinsmobility posx ETV
vector 17 RSUExampleScenario.node[8].veinsmobility posy ETV
vector 18 RSUExampleScenario.node[9].veinsmobility posx ETV
vector 19 RSUExampleScenario.node[9].veinsmobility posy ETV
vector 20 RSUExampleScenario.node[0].veinsmobility speed ETV
vector 21 RSUExampleScenario.node[1].veinsmobility speed ETV
vector 22 RSUExampleScenario.node[2].veinsmobility speed ETV
vector 23 RSUExampleScenario.node[3].veinsmobility speed ETV
vector 24 RSUExampleScenario.node[4].veinsmobility speed ETV
vector 25 RSUExampleScenario.node[5].veinsmobility speed ETV
vector 26 RSUExampleScenario.node[6].veinsmobility speed ETV
vector 27 RSUExampleScenario.node[7].veinsmobility speed ETV
vector 28 RSUExampleScenario.node[8].veinsmobility speed ETV
vector 29 RSUExampleScenario.node[9].veinsmobility speed ETV
vector 30 RSUExampleScenario.node[10].veinsmobility posx ETV
vector 31 RSUExampleScenario.node[10].veinsmobility posy ETV
vector 32 RSUExampleScenario.node[0].veinsmobility acceleration ETV
vector 33 RSUExampleScenario.node[0].veinsmobility co2emission ETV
vector 34 RSUExampleScenario.node[1].veinsmobility acceleration ETV
vector 35 RSUExampleScenario.node[1].veinsmobility co2emission ETV
vector 36 RSUExampleScenario.node[2].veinsmobility acceleration ETV
vector 37 RSUExampleScenario.node[2].veinsmobility co2emission ETV
vector 38 RSUExampleScenario.node[3].veinsmobility acceleration ETV
vector 39 RSUExampleScenario.node[3].veinsmobility co2emission ETV
vector 40 RSUExampleScenario.node[4].veinsmobility acceleration ETV
vector 41 RSUExampleScenario.node[4].veinsmobility co2emission ETV
vector 42 RSUExampleScenario.node[5].veinsmobility acceleration ETV
vector 43 RSUExampleScenario.node[5].veinsmobility co2emission ETV
vector 44 RSUExampleScenario.node[6].veinsmobility acceleration ETV
vector 45 RSUExampleScenario.node[6].veinsmobility co2emission ETV
vector 46 RSUExampleScenario.node[7].veinsmobility acceleration ETV
vector 47 RSUExampleScenario.node[7].veinsmobility co2emission ETV
vector 48 RSUExampleScenario.node[8].veinsmobility acceleration ETV
vector 49 RSUExampleScenario.node[8].veinsmobility co2emission ETV
vector 50 RSUExampleScenario.node[9].veinsmobility acceleration ETV
vector 51 RSUExampleScenario.node[9].veinsmobility co2emission ETV
vector 52 RSUExampleScenario.node[10].veinsmobility speed ETV
vector 53 RSUExampleScenario.node[10].veinsmobility acceleration ETV
vector 54 RSUExampleScenario.node[10].veinsmobility co2emission ETV
0	2	1	3317.6974435821
0	13	2	3321.1497196999
0	23	3	3323.6499442697
0	25	4	3327.1659082837
0	26	5	3331.6281156821
0	27	6	3336.7107378864
0	28	7	3342.7187646405
0	29	8	3348.2849777959
0	30	9	3354.0003003549
0	31	10	3359.1052263245
0	32	11	3367.3724661631
0	33	12	3373.8561068904
0	34	13	3380.3504725342
0	35	14	3386.7369133306
0	36	15	3393.0929186531
0	37	16	3399.4424932714
0	38	17	3405.810796469
0	39	18	3412.1658469239
0	40	19	3425.4237133704
0	41	20	3431.4778605797
0	42	21	3437.5325639778
0	43	22	3443.569621937
0	44	23	3449.6169918187
0	45	24	3455.6585608949
0	47	25	3468.052472982
0	79	26	3473.0094772255
0	111	27	3477.9856800636
0	143	28	3490.0698898411
0	175	29	3495.2393582023
1	2	1	555.22007522392
1	13	2	550.37805625736
1	23	3	546.87519277757
1	25	4	541.94925848777
1	26	5	535.69761872569
1	27	6	527.675847684
1	28	7	517.94494832066
1	29	8	505.96667781347
1	30	9	493.3315718225
1	31	10	480.58485239542
1	32	11	469.73794233794
1	33	12	475.20318604976
1	34	13	480.67747009635
1	35	14	486.26041956283
1	36	15	491.85362853478
1	37	16	497.44117856373
1	38	17	503.0452095193
1	39	18	508.63757821922
1	40	19	520.63170727267
1	41	20	526.23892709004
1	42	21	531.8466620374
1	43	22	537.43805416197
1	44	23	543.03899696557
1	45	24	548.6345671889
1	47	25	560.12476454728
1	79	26	564.72042321965
1	111	27	569.33388098676
1	143	28	580.52068917257
1	175	29	585.31087567922
2	2	1	3133.5092980678
2	13	2	3131.7773313199
2	23	3	3128.7328707115
2	25	4	3124.5036477287
2	26	5	3119.1111001875
2	27	6	3113.2492223738
2	28	7	3107.3646979841
2	29	8	3101.4774710655
2	30	9	3092.6749615476
2	31	10	3088.5807847997
2	32	11	3085.2660521488
2	33	12	3081.0521314655
2	34	13	3079.8296007405
2	35	14	3078.631996861
2	36	15	3079.8893041981
2	37	16	3083.3173326973
2	38	17	3086.9248305031
2	39	18	3090.7610491049
2	40	19	3094.7287711725
2	41	20	3102.5713652143
2	42	21	3110.1593806333
2	43	22	3114.3808231733
2	44	23	3118.5561451381
2	45	24	3122.7419897764
2	47	25	3125.4679649037
2	79	26	3152.9895950577
2	111	27	3153.6252091244
2	143	28	3155.0903369636
2	175	29	3164.3499921883
3	2	1	917.83876565813
3	13	2	917.93070957191
3	23	3	918.09232908568
3	25	4	918.59384553578
3	26	5	919.2634872603
3	27	6	919.99140999776
3	28	7	920.68209209752
3	29	8	920.93001785581
3	30	9	917.60220429615
3	31	10	913.75412560409
3	32	11	909.32808625676
3	33	12	894.99406033987
3	34	13	887.13532583666
3	35	14	879.43682735548
3	36	15	872.50996094804
3	37	16	879.44420105252
3	38	17	886.74009367173
3	39	18	893.92307414426
3	40	19	901.02848906529
3	41	20	908.94237342964
3	42	21	910.27238655576
3	43	22	909.96276143617
3	44	23	909.50129302576
3	45	24	909.03866161969
3	47	25	908.73737912712
3	79	26	892.90844250718
3	111	27	890.12100998586
3	143	28	887.0576313258
3	175	29	873.34633847603
4	2	1	739.63611667643
4	13	2	740.34755860859
4	23	3	741.71245871081
4	25	4	743.87763918397
4	26	5	747.59639534144
4	27	6	752.20316753502
4	28	7	757.67054728268
4	29	8	763.62409065719
4	30	9	769.94477432867
4	31	10	776.4579795286
4	32	11	783.22415067464
4	33	12	790.395815688
4	34	13	797.84189614375
4	35	14	805.36184254428
4	36	15	811.60028910166
4	37	16	835.89436633752
4	38	17	844.16223430952
4	39	18	853.85637341376
4	40	19	864.56918386185
4	41	20	875.25248604688
4	42	21	885.51781967154
4	43	22	892.71204722576
4	44	23	904.93108765275
4	45	24	912.61786171973
4	47	25	920.47570429731
4	79	26	930.00312266688
4	111	27	937.72701764397
4	143	28	947.15195835553
4	175	29	958.03901121222
5	2	1	1908.1697892473
5	13	2	1910.4715131454
5	23	3	1914.3790819742
5	25	4	1919.8607690451
5	26	5	1926.3273833786
5	27	6	1933.0271101263
5	28	7	1939.0759751389
5	29	8	1944.6280930396
5	30	9	1949.7537605141
5	31	10	1954.6451413485
5	32	11	1959.152390775
5	33	12	1962.9953293484
5	34	13	1966.325425762
5	35	14	1969.4416915503
5	36	15	1972.0269038037
5	37	16	1979.6758873928
5	38	17	1978.7586126853
5	39	18	1977.3055869819
5	40	19	1975.5615487426
5	41	20	1973.2200030582
5	42	21	1970.9700669213
5	43	22	1969.3932499231
5	44	23	1966.4750747043
5	45	24	1964.2921550163
5	47	25	1962.0606546343
5	79	26	1962.8794389031
5	111	27	1961.0576235187
5	143	28	1958.8345868206
5	175	29	1956.2666854646
6	2	1	1886.6471631102
6	13	2	1879.8388018725
6	23	3	1877.5586419276
6	25	4	1874.2841566279
6	26	5	1865.6754464197
6	27	6	1858.9810965637
6	28	7	1851.3639506649
6	29	8	1843.7106531889
6	30	9	1836.0458801502
6	31	10	1828.3818406642
6	32	11	1820.7387772831
6	33	12	1813.7274062604
6	34	13	1807.0365321788
6	35	14	1800.3599568863
6	36	15	1793.6541255151
6	37	16	1787.0968012114
6	38	17	1781.2376024543
6	39	18	1777.3372934201
6	40	19	1779.7437899954
6	41	20	1784.8768935259
6	42	21	1790.0052589974
6	43	22	1795.1287143758
6	44	23	1809.0683008562
6	45	24	1814.226151992
6	47	25	1819.3479631749
6	79	26	1824.5024049342
6	111	27	1832.9164476635
6	143	28	1846.9645781269
6	175	29	1853.3569026366
7	2	1	2656.1954913976
7	13	2	2662.0267620547
7	23	3	2663.9080669232
7	25	4	2666.6097656134
7	26	5	2669.3355813117
7	27	6	2661.7508983722
7	28	7	2653.1206896457
7	29	8	2644.4495212656
7	30	9	2635.7653510995
7	31	10	2627.0820120469
7	32	11	2618.4224388727
7	33	12	2609.230188316
7	34	13	2599.7943402521
7	35	14	2590.3786571473
7	36	15	2580.92171547
7	37	16	2571.4089252389
7	38	17	2562.1050077701
7	39	18	2555.9116433084
7	40	19	2547.9733301252
7	41	20	2545.8578373033
7	42	21	2543.7442971655
7	43	22	2541.6327806118
7	44	23	2535.8577730679
7	45	24	2533.7171530972
7	47	25	2531.5914904879
7	79	26	2529.4522854823
7	111	27	2525.9613087556
7	143	28	2520.2876790537
7	175	29	2517.74448976
8	2	1	3241.275676909
8	13	2	3242.5221394192
8	23	3	3244.6486959281
8	25	4	3247.6271282797
8	26	5	3251.9520843929
8	27	6	3257.5950891611
8	28	7	3270.6484797354
8	29	8	3278.7218856875
8	30	9	3287.4734618327
8	31	10	3296.577434997
8	32	11	3312.4956728994
8	33	12	3321.3396708696
8	34	13	3328.4767017087
8	35	14	3333.1192496186
8	36	15	3333.0210942657
8	37	16	3329.3238641652
8	38	17	3324.8740625461
8	39	18	3295.3961176542
8	40	19	3287.7380184422
8	41	20	3281.8101968609
8	42	21	3278.0111090493
8	43	22	3268.5170624731
8	44	23	3262.9861590843
8	45	24	3257.1276454669
8	47	25	3251.2966696433
8	79	26	3245.5688835147
8	111	27	3233.0955993673
8	143	28	3226.6195203098
8	175	29	3220.1377347409
9	2	1	2330.2128008043
9	13	2	2332.0916150269
9	23	3	2335.29700996
9	25	4	2339.7864518947
9	26	5	2345.3632949349
9	27	6	2352.1326775425
9	28	7	2367.5089484738
9	29	8	2376.5631990019
9	30	9	2386.3780111647
9	31	10	2395.8521763811
9	32	11	2411.6647581484
9	33	12	2420.4771139076
9	34	13	2427.5886097527
9	35	14	2432.2145474733
9	36	15	2439.639732824
9	37	16	2441.5745373219
9	38	17	2443.9031714489
9	39	18	2460.0417002542
9	40	19	2464.8703370381
9	41	20	2469.1520800449
9	42	21	2471.8958656867
9	43	22	2470.974425862
9	44	23	2465.3473850977
9	45	24	2459.3870396304
9	47	25	2453.3984202765
9	79	26	2447.3158610394
9	111	27	2433.8176099572
9	143	28	2426.112166915
9	175	29	2418.3999340855
10	2	1	1551.4637777569
10	13	2	1551.4174881336
10	23	3	1551.3398596412
10	25	4	1551.2305554064
10	26	5	1551.0931630423
10	27	6	1550.9532124573
10	28	7	1550.8132487131
10	29	8	1550.6733168455
10	30	9	1550.5332819797
10	31	10	1550.3933984943
10	32	11	1550.2532761456
10	33	12	1550.1137357992
10	34	13	1549.9740120223
10	35	14	1549.8336537442
10	36	15	1549.6940386374
10	37	16	1549.5739433205
10	38	17	1552.06711843
10	39	18	1554.4121106797
10	40	19	1557.0254014458
10	41	20	1559.5925277408
10	42	21	1562.1552572889
10	43	22	1564.8552783036
10	44	23	1573.3800971113
10	45	24	1576.8866788799
10	47	25	1591.4201833081
10	79	26	1599.7698056522
10	111	27	1608.3245153875
10	143	28	1623.6196234452
10	175	29	1628.0982160887
11	2	1	515.63977996976
11	13	2	518.04983423985
11	23	3	522.09153659242
11	25	4	527.78242622951
11	26	5	534.93571523805
11	27	6	542.22219718428
11	28	7	549.50936426433
11	29	8	556.79487169997
11	30	9	564.08574170204
11	31	10	571.36873013743
11	32	11	578.6641549087
11	33	12	585.929277918
11	34	13	593.20395117799
11	35	14	600.51165953658
11	36	15	607.78067492185
11	37	16	614.0333987619
11	38	17	642.34551147048
11	39	18	649.8902691435
11	40	19	658.96145594953
11	41	20	668.63333001824
11	42	21	678.28863895667
11	43	22	687.88719867014
11	44	23	707.40863857759
11	45	24	712.20499754834
11	47	25	725.06977385535
11	79	26	731.54060917287
11	111	27	737.73179971816
11	143	28	748.73023118552
11	175	29	751.94871801358
12	2	1	3384.4538470488
12	13	2	3386.1166151347
12	23	3	3388.9795708112
12	25	4	3392.8335663387
12	26	5	3387.7011794143
12	27	6	3381.6993344021
12	28	7	3366.2004457221
12	29	8	3357.5262146346
12	30	9	3348.8422420784
12	31	10	3340.1481207235
12	32	11	3331.485028564
12	33	12	3322.8118592589
12	34	13	3314.1398232882
12	35	14	3305.4820856152
12	36	15	3296.8015453893
12	37	16	3288.1168135247
12	38	17	3279.4617147156
12	39	18	3270.7777016563
12	40	19	3262.0837641836
12	41	20	3253.4052777608
12	42	21	3244.7216777617
12	43	22	3236.0475238017
12	44	23	3227.3812519162
12	45	24	3220.9715116379
12	47	25	3216.9663297829
12	79	26	3217.2105511464
12	111	27	3222.1668303329
12	143	28	3227.7970034062
12	175	29	3238.6751763545
13	2	1	2168.6201787654
13	13	2	2167.4674138553
13	23	3	2165.4825821333
13	25	4	2162.8106816767
13	26	5	2162.3554985405
13	27	6	2166.5164614461
13	28	7	2176.7754125696
13	29	8	2182.2911663601
13	30	9	2187.8131145374
13	31	10	2193.3415161137
13	32	11	2198.8501869035
13	33	12	2204.3652655298
13	34	13	2209.8796234935
13	35	14	2215.3848894825
13	36	15	2220.904655116
13	37	16	2226.4270861209
13	38	17	2231.9306741141
13	39	18	2237.4526480464
13	40	19	2242.9809326961
13	41	20	2248.4993923612
13	42	21	2254.0211036376
13	43	22	2259.5368083843
13	44	23	2265.0475010924
13	45	24	2272.79542791
13	47	25	2282.2607400812
13	79	26	2292.1955765641
13	111	27	2301.1412064549
13	143	28	2309.7389891481
13	175	29	2326.2930219197
14	2	1	891.72117163321
14	13	2	889.52466346458
14	23	3	885.89844926925
14	25	4	880.84555873098
14	26	5	874.27948719986
14	27	6	866.08873331901
14	28	7	856.29013801626
14	29	8	845.37670640292
14	30	9	836.92479034856
14	31	10	831.19145740299
14	32	11	837.52625691179
14	33	12	846.20315779486
14	34	13	856.40642039515
14	35	14	867.53832826796
14	36	15	878.62141595248
14	37	16	888.20751364286
14	38	17	894.32809735031
14	39	18	907.07665852608
14	40	19	915.2060964351
14	41	20	922.15065643401
14	42	21	932.12715003026
14	43	22	940.2644947791
14	44	23	950.0710535972
14	45	24	961.4317468616
14	47	25	982.51543557208
14	79	26	994.91165789978
14	111	27	1007.2943744139
14	143	28	1019.6727316152
14	175	29	1032.069135958
15	2	1	1966.2266842408
15	13	2	1966.7090168825
15	23	3	1967.5052995903
15	25	4	1968.614867074
15	26	5	1970.0567149453
15	27	6	1971.8553278589
15	28	7	1973.6078635381
15	29	8	1975.2493879625
15	30	9	1976.2432122129
15	31	10	1976.8778507242
15	32	11	1979.4948380638
15	33	12	1978.4579533271
15	34	13	1976.9216191876
15	35	14	1974.9107773659
15	36	15	1972.4816074625
15	37	16	1970.380544955
15	38	17	1969.0390471561
15	39	18	1965.8657672288
15	40	19	1963.5571381591
15	41	20	1961.5849952792
15	42	21	1962.3784499929
15	43	22	1960.4591152665
15	44	23	1958.1460672802
15	45	24	1955.4664495707
15	47	25	1951.2245053318
15	79	26	1948.9974230807
15	111	27	1946.7727672589
15	143	28	1944.5488946231
15	175	29	1942.3217796715
16	2	1	1500.2811651673
16	13	2	1499.6000040998
16	23	3	1498.4272170983
16	25	4	1496.4464352329
16	26	5	1493.7373085102
16	27	6	1490.4818474629
16	28	7	1487.1893383856
16	29	8	1485.0132609841
16	30	9	1483.6741651558
16	31	10	1486.8487756633
16	32	11	1490.6127480329
16	33	12	1494.6875771654
16	34	13	1496.8588632869
16	35	14	1497.9858027694
16	36	15	1498.1718390522
16	37	16	1498.1718390522
16	38	17	1498.1718390522
16	39	18	1498.1718390522
16	40	19	1498.1718390522
16	41	20	1498.1718390522
16	42	21	1498.1718390522
16	43	22	1498.1718390522
16	44	23	1498.1718390522
16	45	24	1498.1718390522
16	47	25	1498.1718390522
16	79	26	1498.1718390522
16	111	27	1498.1718390522
16	143	28	1498.1718390522
16	175	29	1498.1718390522
17	2	1	1404.6085563151
17	13	2	1401.7987669116
17	23	3	1396.9610205304
17	25	4	1390.493859048
17	26	5	1382.4295764968
17	27	6	1372.7390155132
17	28	7	1362.9381733162
17	29	8	1356.4606236054
17	30	9	1362.8149458525
17	31	10	1372.2693477335
17	32	11	1383.4789456878
17	33	12	1395.6143154043
17	34	13	1404.5022263282
17	35	14	1409.1585916626
17	36	15	1409.9272690509
17	37	16	1409.9272690509
17	38	17	1409.9272690509
17	39	18	1409.9272690509
17	40	19	1409.9272690509
17	41	20	1409.9272690509
17	42	21	1409.9272690509
17	43	22	1409.9272690509
17	44	23	1409.9272690509
17	45	24	1409.9272690509
17	47	25	1409.9272690509
17	79	26	1409.9272690509
17	111	27	1409.9272690509
17	143	28	1409.9272690509
17	175	29	1409.9272690509
18	2	1	834.60253726576
18	13	2	836.47556257976
18	23	3	839.66648438681
18	25	4	844.21705061574
18	26	5	850.09856694053
18	27	6	856.98811411071
18	28	7	863.91505090856
18	29	8	870.82725571177
18	30	9	877.75473473435
18	31	10	883.12996222329
18	32	11	879.6526842117
18	33	12	872.81950425123
18	34	13	865.90878780677
18	35	14	858.99162639024
18	36	15	852.07679600442
18	37	16	845.15877350794
18	38	17	838.23434281786
18	39	18	832.15222397891
18	40	19	828.33528869653
18	41	20	833.31332779859
18	42	21	839.37718669531
18	43	22	846.48620875013
18	44	23	855.40585452559
18	45	24	863.67918704371
18	47	25	861.85376103284
18	79	26	853.68721326926
18	111	27	845.52656994169
18	143	28	837.37419893321
18	175	29	829.19461754613
19	2	1	761.66779345798
19	13	2	760.20775908695
19	23	3	757.72041656215
19	25	4	754.17322312478
19	26	5	749.58854617262
19	27	6	744.21810318177
19	28	7	738.8185147538
19	29	8	733.43041000327
19	30	9	728.0303989079
19	31	10	723.84037711414
19	32	11	722.36904927858
19	33	12	727.69652853034
19	34	13	733.08445899399
19	35	14	738.47741427115
19	36	15	743.86855216346
19	37	16	749.26217878041
19	38	17	754.66080153659
19	39	18	759.40271702962
19	40	19	773.02718030007
19	41	20	779.6386384825
19	42	21	787.6922010797
19	43	22	797.13387099626
19	44	23	806.81169481899
19	45	24	815.6854443617
19	47	25	824.96918000915
19	79	26	828.1852046985
19	111	27	831.39890419334
19	143	28	834.60934601024
19	175	29	837.83050340145
20	13	2	3.823456507944
20	23	3	5.6337917703478
20	25	4	7.5472561601521
20	26	5	9.3900482154632
20	27	6	11.494784456947
20	28	7	13.638211269113
20	29	8	15.417714253211
20	30	9	15.408166206955
20	31	10	14.404189906995
20	32	11	9.9664081300741
20	33	12	9.8526237420427
20	34	13	9.965045959029
20	35	14	9.9536377363877
20	36	15	9.8781534399829
20	37	16	9.9617270076057
20	38	17	9.8580141614742
20	39	18	9.9070399892206
20	40	19	9.8860661918313
20	41	20	9.8934834789733
20	42	21	9.9624705501894
20	43	22	9.8536287514858
20	44	23	9.9372541821484
20	45	24	9.9295056810571
20	47	25	9.8736397586988
20	79	26	9.9387736695252
20	111	27	9.9444251532822
20	143	28	9.9730618415556
20	175	29	9.9784471103145
21	13	2	3.5494577054596
21	23	3	5.5511473287955
21	25	4	7.4371884507882
21	26	5	9.119378726875
21	27	6	9.1279055869035
21	28	7	9.1383012654321
21	29	8	9.0957999355383
21	30	9	9.2044144409048
21	31	10	9.2008040501448
21	32	11	9.1083913751589
21	33	12	9.1316490985258
21	34	13	9.1625977255232
21	35	14	7.9912611305721
21	36	15	7.7158234209235
21	37	16	9.1537031680616
21	38	17	9.192654441366
21	39	18	9.1159793992448
21	40	19	9.1103297967944
21	41	20	9.2036790547557
21	42	21	9.1194195238492
21	43	22	10.698485931308
21	44	23	12.806712687869
21	45	24	9.938281699396
21	47	25	6.8886559522412
21	79	26	9.063919155966
21	111	27	11.106672835504
21	143	28	13.012104733952
21	175	29	13.747417977371
22	13	2	3.5225016430937
22	23	3	5.3902175229331
22	25	4	7.3485110220135
22	26	5	8.9753359045903
22	27	6	9.0089644147618
22	28	7	9.0029082841426
22	29	8	8.9541174476384
22	30	9	9.0689753867802
22	31	10	9.0357990119699
22	32	11	9.063538872539
22	33	12	9.0161842969595
22	34	13	9.0588409139891
22	35	14	8.9678718595579
22	36	15	7.1604377555203
22	37	16	9.2793911246102
22	38	17	11.220033753091
22	39	18	12.922508073897
22	40	19	13.497319347965
22	41	20	13.575585482523
22	42	21	11.608391743826
22	43	22	7.108391743826
22	44	23	8.0967482151392
22	45	24	10.099940054214
22	47	25	7.6972300317605
22	79	26	8.1353433535428
22	111	27	10.118988227464
22	143	28	12.028092494183
22	175	29	13.544330701136
23	13	2	3.6257173583215
23	23	3	5.6988538264531
23	25	4	7.6407245699876
23	26	5	9.6730001790636
23	27	6	11.54314414602
23	28	7	12.181900598673
23	29	8	12.137528596849
23	30	9	12.198295394169
23	31	10	12.25473726359
23	32	11	12.144029872166
23	33	12	12.215678220978
23	34	13	12.146050448132
23	35	14	12.141032909798
23	36	15	12.240666587805
23	37	16	12.189647388079
23	38	17	10.126225867012
23	39	18	6.3362258670122
23	40	19	7.8401702810372
23	41	20	7.8517037158194
23	42	21	7.8936250543329
23	43	22	7.7792520616823
23	44	23	7.8141180829368
23	45	24	7.8878335024849
23	47	25	7.8264978380562
23	79	26	7.8735261965068
23	111	27	7.8521290300241
23	143	28	7.8738048825497
23	175	29	7.8189392221011
24	13	2	3.5635808933811
24	23	3	5.5357368613854
24	25	4	7.3902736322657
24	26	5	9.5955569405579
24	27	6	11.543100562168
24	28	7	13.605298966726
24	29	8	15.614729644594
24	30	9	15.962171452893
24	31	10	15.936315659108
24	32	11	15.974868646639
24	33	12	15.296514823842
24	34	13	10.796514823842
24	35	14	6.3199471646008
24	36	15	8.7330329610846
24	37	16	10.790906556244
24	38	17	12.729820596159
24	39	18	14.52969529486
24	40	19	14.807355317772
24	41	20	10.307355317772
24	42	21	6.517355317772
24	43	22	8.6155353915581
24	44	23	10.316232057811
24	45	24	10.276016978718
24	47	25	10.316638531225
24	79	26	10.253951662326
24	111	27	10.217700617154
24	143	28	10.220584316516
24	175	29	10.30222162509
25	13	2	3.6742565394753
25	23	3	5.4813005604014
25	25	4	7.4063694917156
25	26	5	8.4100486526298
25	27	6	8.4070156464805
25	28	7	8.3525848393431
25	29	8	8.347788389985
25	30	9	8.4477645950238
25	31	10	8.4468670572629
25	32	11	8.4322995423325
25	33	12	8.3292942917706
25	34	13	8.3907096202308
25	35	14	8.4277607775768
25	36	15	8.3993542455984
25	37	16	7.3323851410122
25	38	17	9.2198800941076
25	39	18	11.281405616296
25	40	19	13.018694392809
25	41	20	13.131648598484
25	42	21	13.119156947684
25	43	22	13.009445791862
25	44	23	13.016319628466
25	45	24	13.008124435559
25	47	25	13.063679138695
25	79	26	13.11304179153
25	111	27	13.030408761788
25	143	28	13.021231258731
25	175	29	13.094163513452
26	13	2	3.7140622864099
26	23	3	5.7347985383792
26	25	4	7.2867985385041
26	26	5	9.2942611414045
26	27	6	10.509129566356
26	28	7	10.560537018835
26	29	8	10.50910791833
26	30	9	10.590195892331
26	31	10	10.498429649371
26	32	11	10.50934900273
26	33	12	10.600323659553
26	34	13	10.567208098721
26	35	14	10.498654013978
26	36	15	10.608710675897
26	37	16	10.601438983175
26	38	17	10.599517855908
26	39	18	10.580199739836
26	40	19	10.530573190046
26	41	20	10.537500842822
26	42	21	10.508477373667
26	43	22	10.595757947726
26	44	23	10.538750273104
26	45	24	10.551191352793
26	47	25	10.590498935504
26	79	26	10.582731300689
26	111	27	10.580604964151
26	143	28	10.539084480133
26	175	29	10.559916384605
27	13	2	3.6250404470836
27	23	3	5.3878243405584
27	25	4	7.3109570816837
27	26	5	9.2968713053691
27	27	6	11.371066450288
27	28	7	13.211996742687
27	29	8	13.064245490128
27	30	9	8.5949674016818
27	31	10	7.6521083171259
27	32	11	9.7177548435133
27	33	12	11.777634378675
27	34	13	13.545269100574
27	35	14	14.099549826881
27	36	15	14.044179858874
27	37	16	10.172494822226
27	38	17	6.3874783727827
27	39	18	8.6528262283325
27	40	19	10.621652145886
27	41	20	6.3835878673095
27	42	21	8.6523175933088
27	43	22	10.617641840702
27	44	23	12.567253305487
27	45	24	14.101429721556
27	47	25	14.01286633396
27	79	26	14.120477742668
27	111	27	14.071258361578
27	143	28	14.083121295144
27	175	29	14.120966181419
28	13	2	3.9981468017583
28	23	3	5.9877441594305
28	25	4	7.7718247824393
28	26	5	9.5392743945515
28	27	6	11.41431094289
28	28	7	8.7821005054687
28	29	8	7.1221005054687
28	30	9	9.2612409292635
28	31	10	11.105846644366
28	32	11	13.101080950443
28	33	12	11.917769833839
28	34	13	7.4191701041329
28	35	14	2.9191701041329
28	36	15	0
28	37	16	0
28	38	17	0
28	39	18	0
28	40	19	0
28	41	20	0
28	42	21	0
28	43	22	0
28	44	23	0
28	45	24	0
28	47	25	0
28	79	26	0
28	111	27	0
28	143	28	0
28	175	29	0
29	13	2	3.5062234341566
29	23	3	5.5384824399723
29	25	4	7.3354523559663
29	26	5	9.4271002360832
29	27	6	10.028140170444
29	28	7	9.9620014016057
29	29	8	9.9486279157113
29	30	9	9.9848671654848
29	31	10	6.9745827615292
29	32	11	9.1371221460037
29	33	12	10.057298448145
29	34	13	9.9388939664356
29	35	14	9.9985441699979
29	36	15	10.044065911503
29	37	16	9.9555413551867
29	38	17	10.018139054969
29	39	18	6.9465854806334
29	40	19	8.5036128064103
29	41	20	10.752847183218
29	42	21	12.673769881213
29	43	22	14.746885979082
29	44	23	15.602590391751
29	45	24	12.383578475693
29	47	25	10.042215465699
29	79	26	9.981621734596
29	111	27	10.000364042353
29	143	28	9.9750390546263
29	175	29	9.9498854290584
30	23	3	3315
30	25	4	3317.7052281783
30	26	5	3321.493893038
30	27	6	3324.3249559789
30	28	7	3328.1519707075
30	29	8	3332.9409135003
30	30	9	3338.2295767117
30	31	10	3344.1008098635
30	32	11	3349.5378798148
30	33	12	3354.7973734212
30	34	13	3359.5146922134
30	35	14	3367.7814945414
30	36	15	3373.8482641717
30	37	16	3379.950308701
30	38	17	3385.9373441092
30	39	18	3391.913234717
30	40	19	3397.8943343494
30	41	20	3403.8614975061
30	42	21	3409.845200392
30	43	22	3422.8462282892
30	44	23	3428.5223656101
30	45	24	3434.1918930543
30	47	25	3439.8526229641
30	79	26	3445.5247396808
30	111	27	3451.2026620053
30	143	28	3456.8802963417
30	175	29	3468.7549871875
31	23	3	553.33
31	25	4	555.20969576229
31	26	5	549.89586268508
31	27	6	545.92948818252
31	28	7	540.56776576328
31	29	8	533.78164301756
31	30	9	525.21586067609
31	31	10	515.03304747995
31	32	11	503.25185540613
31	33	12	491.3413242069
31	34	13	479.56243858723
31	35	14	470.08272389917
31	36	15	475.19657520088
31	37	16	480.3401607103
31	38	17	485.55680817233
31	39	18	490.81552072325
31	40	19	496.07881715382
31	41	20	501.32984965176
31	42	21	506.59543691437
31	43	22	518.24449650185
31	44	23	523.5016117604
31	45	24	528.75260509455
31	47	25	533.99545034326
31	79	26	539.24884180541
31	111	27	544.50761029561
31	143	28	549.76611205749
31	175	29	560.77606830708
32	23	3	1.8103352624038
32	25	4	1.9134643898043
32	26	5	1.8427920553111
32	27	6	2.1047362414841
32	28	7	2.1434268121654
32	29	8	1.7795029840986
32	30	9	-0.0095480462559507
32	31	10	-1.0039762999604
32	32	11	-4.4377817769209
32	33	12	-0.11378438803134
32	34	13	0.11242221698631
32	35	14	-0.011408222641331
32	36	15	-0.075484296404756
32	37	16	0.083573567622807
32	38	17	-0.10371284613153
32	39	18	0.049025827746371
32	40	19	-0.020973797389306
32	41	20	0.0074172871420171
32	42	21	0.068987071216107
32	43	22	-0.10884179870365
32	44	23	0.08362543066265
32	45	24	-0.0077485010912639
32	47	25	-0.055865922358352
32	79	26	0.065133910826408
32	111	27	0.0056514837569548
32	143	28	0.028636688273401
32	175	29	0.0053852687589817
33	23	3	3.8562642931653
33	25	4	4.9941721244841
33	26	5	5.8097023126035
33	27	6	7.6354450151985
33	28	7	9.0472808634776
33	29	8	8.8043525289617
33	30	9	2.1557636001858
33	31	10	0.973
33	32	11	0.973
33	33	12	1.4034659930549
33	34	13	1.9521178813247
33	35	14	1.6538970949327
33	36	15	1.4958646091425
33	37	16	1.8825173932108
33	38	17	1.4276510894664
33	39	18	1.7947960027781
33	40	19	1.6261900758785
33	41	20	1.6944051482736
33	42	21	1.8475671605991
33	43	22	1.4152512437599
33	44	23	1.8802967190881
33	45	24	1.6608960706562
33	47	25	1.5422898223577
33	79	26	1.8361505222823
33	111	27	1.6941106929419
33	143	28	1.751563344045
33	175	29	1.6960936708046
34	23	3	2.0016896233358
34	25	4	1.8860411219927
34	26	5	1.6821902760868
34	27	6	0.0085268600285051
34	28	7	0.010395678528585
34	29	8	-0.042501329893712
34	30	9	0.10861450536642
34	31	10	-0.003610390760004
34	32	11	-0.092412674985827
34	33	12	0.023257723366843
34	34	13	0.030948626997414
34	35	14	-1.1713365949511
34	36	15	-0.27543770964863
34	37	16	1.4378797471381
34	38	17	0.038951273304411
34	39	18	-0.076675042121206
34	40	19	-0.0056496024504309
34	41	20	0.093349257961382
34	42	21	-0.084259530906566
34	43	22	1.5790664074593
34	44	23	2.1082267565606
34	45	24	-2.8684309884731
34	47	25	-3.0496257471548
34	79	26	2.1752632037248
34	111	27	2.0427536795381
34	143	28	1.9054318984482
34	175	29	0.73531324341834
35	23	3	4.0715031062076
35	25	4	4.8872405464348
35	26	5	5.3170463408066
35	27	6	1.6393442027896
35	28	7	1.6442231258393
35	29	8	1.5251324421119
35	30	9	1.866994510616
35	31	10	1.6177943168161
35	32	11	1.4163384763309
35	33	12	1.6720375732488
35	34	13	1.691404588644
35	35	14	0.973
35	36	15	0.973
35	37	16	4.7944522238731
35	38	17	1.7115096179897
35	39	18	1.4512849445512
35	40	19	1.6069294814549
35	41	20	1.8330628795207
35	42	21	1.4347975458118
35	43	22	5.8105773864621
35	44	23	8.4287018285086
35	45	24	0.973
35	47	25	0.973
35	79	26	6.3676875068327
35	111	27	7.2402095346153
35	143	28	7.916504539891
35	175	29	4.4493758819748
36	23	3	1.8677158798394
36	25	4	1.9582934990805
36	26	5	1.6268248825767
36	27	6	0.033628510171548
36	28	7	-0.0060561306192533
36	29	8	-0.048790836504196
36	30	9	0.1148579391418
36	31	10	-0.033176374810283
36	32	11	0.027739860569127
36	33	12	-0.04735457557952
36	34	13	0.04265661702957
36	35	14	-0.090969054431188
36	36	15	-1.8074341040376
36	37	16	2.1189533690899
36	38	17	1.9406426284811
36	39	18	1.7024743208056
36	40	19	0.57481127406854
36	41	20	0.078266134557779
36	42	21	-1.9671937386972
36	43	22	-4.5
36	44	23	0.98835647131315
36	45	24	2.0031918390747
36	47	25	-2.4027100224534
36	79	26	0.43811332178233
36	111	27	1.9836448739213
36	143	28	1.9091042667185
36	175	29	1.5162382069538
37	23	3	3.8107336912912
37	25	4	4.9692708067647
37	26	5	5.1286755089246
37	27	6	1.6851509715846
37	28	7	1.5985698135717
37	29	8	1.5029782863139
37	30	9	1.8674279985681
37	31	10	1.5417921790829
37	32	11	1.6765982714302
37	33	12	1.5097521169545
37	34	13	1.7087993098459
37	35	14	1.4126281824516
37	36	15	0.973
37	37	16	6.3701364329402
37	38	17	7.0292900700878
37	39	18	7.2347877571788
37	40	19	3.8580391350771
37	41	20	2.2520766010759
37	42	21	0.973
37	43	22	0.973
37	44	23	3.4782180673067
37	45	24	6.5683377814689
37	47	25	0.973
37	79	26	2.4111610962351
37	111	27	6.5313233345603
37	143	28	7.3850443502955
37	175	29	6.9421916612024
38	23	3	2.0731364681316
38	25	4	1.9418707435345
38	26	5	2.032275609076
38	27	6	1.8701439669565
38	28	7	0.63875645265243
38	29	8	-0.044372001823504
38	30	9	0.06076679731952
38	31	10	0.056441869421397
38	32	11	-0.11070739142364
38	33	12	0.071648348812014
38	34	13	-0.069627772846726
38	35	14	-0.0050175383337763
38	36	15	0.09963367800694
38	37	16	-0.051019199725706
38	38	17	-2.0634215210669
38	39	18	-3.79
38	40	19	1.503944414025
38	41	20	0.011533434782177
38	42	21	0.041921338513493
38	43	22	-0.11437299265061
38	44	23	0.034866021254565
38	45	24	0.073715419548098
38	47	25	-0.06133566442877
38	79	26	0.047028358450625
38	111	27	-0.021397166482639
38	143	28	0.021675852525513
38	175	29	-0.054865660448558
39	23	3	4.2493052205414
39	25	4	5.0955852388321
39	26	5	6.3978619161415
39	27	6	7.0114745061801
39	28	7	3.7399409086249
39	29	8	1.7309021603991
39	30	9	2.0447630446835
39	31	10	2.037877481407
39	32	11	1.5372673059482
39	33	12	2.078609059497
39	34	13	1.6576416499495
39	35	14	1.8463275733236
39	36	15	2.1638382298518
39	37	16	1.7154685625121
39	38	17	0.973
39	39	18	0.973
39	40	19	4.3744036537169
39	41	20	1.5553066011757
39	42	21	1.6159743205548
39	43	22	1.3143343429235
39	44	23	1.5966898915333
39	45	24	1.6759760141467
39	47	25	1.4161466670807
39	79	26	1.6241461755332
39	111	27	1.493018912948
39	143	28	1.576058980958
39	175	29	1.4279574257079
40	23	3	1.9721559680044
40	25	4	1.8545367708802
40	26	5	2.2052833082923
40	27	6	1.9475436216104
40	28	7	2.062198404558
40	29	8	2.0094306778675
40	30	9	0.34744180829953
40	31	10	-0.025855793785304
40	32	11	0.038552987531293
40	33	12	-0.67835382279743
40	34	13	-4.5
40	35	14	-4.4765676592411
40	36	15	2.4130857964838
40	37	16	2.057873595159
40	38	17	1.938914039915
40	39	18	1.7998746987013
40	40	19	0.27766002291209
40	41	20	-4.5
40	42	21	-3.79
40	43	22	2.0981800737861
40	44	23	1.700696666253
40	45	24	-0.040215079092887
40	47	25	0.040621552506929
40	79	26	-0.062686868899037
40	111	27	-0.036251045172103
40	143	28	0.0028836993616999
40	175	29	0.081637308574283
41	23	3	4.02379312276
41	25	4	4.8068272675304
41	26	5	6.7542892550092
41	27	6	7.2267682621527
41	28	7	8.7606613800022
41	29	8	9.7767463228364
41	30	9	3.5922896595832
41	31	10	2.1533484000517
41	32	11	2.4056581792038
41	33	12	0.973
41	34	13	0.973
41	35	14	0.973
41	36	15	6.6715362583721
41	37	16	7.0983539382882
41	38	17	7.8630186860371
41	39	18	8.3968179516214
41	40	19	3.1150766125493
41	41	20	0.973
41	42	21	0.973
41	43	22	5.9412342418185
41	44	23	5.9373702630551
41	45	24	1.606363009657
41	47	25	1.810107293952
41	79	26	1.5493357438395
41	111	27	1.6121793768558
41	143	28	1.7087719214506
41	175	29	1.9106814012756
42	23	3	1.8070440209261
42	25	4	1.9250689313142
42	26	5	1.0036791609142
42	27	6	-0.0030330061493444
42	28	7	-0.054430807137395
42	29	8	-0.0047964493581105
42	30	9	0.099976205038839
42	31	10	-0.00089753776090262
42	32	11	-0.014567514930386
42	33	12	-0.10300525056198
42	34	13	0.061415328460281
42	35	14	0.037051157345994
42	36	15	-0.028406531978398
42	37	16	-1.0669691045863
42	38	17	1.8874949530954
42	39	18	2.0615255221888
42	40	19	1.7372887765125
42	41	20	0.11295420567505
42	42	21	-0.012491650800222
42	43	22	-0.10971115582157
42	44	23	0.0068738366034822
42	45	24	-0.0081951929070048
42	47	25	0.055554703136439
42	79	26	0.049362652834972
42	111	27	-0.082633029741702
42	143	28	-0.0091775030572894
42	175	29	0.072932254720945
43	23	3	3.7767245315045
43	25	4	4.9409371545599
43	26	5	3.604929541413
43	27	6	1.564299924615
43	28	7	1.4571923138189
43	29	8	1.5567864126435
43	30	9	1.7767555244996
43	31	10	1.5713246824516
43	32	11	1.5425576296986
43	33	12	1.3584188485547
43	34	13	1.6935313766156
43	35	14	1.6471074110611
43	36	15	1.5124237913776
43	37	16	0.973
43	38	17	5.8211656658671
43	39	18	7.3917655383276
43	40	19	7.3926078773634
43	41	20	2.3101249451398
43	42	21	1.9119616236705
43	43	22	1.5969999882699
43	44	23	1.9631917308774
43	45	24	1.915157491325
43	47	25	2.1210508610064
43	79	26	2.1068681241009
43	111	27	1.6834760203601
43	143	28	1.9132965334517
43	175	29	2.1792129557134
44	23	3	2.0207362519694
44	25	4	1.5520000001249
44	26	5	2.0074626029003
44	27	6	1.2148684249511
44	28	7	0.05140745247947
44	29	8	-0.051429100504611
44	30	9	0.081087974000257
44	31	10	-0.091766242960002
44	32	11	0.010919353358913
44	33	12	0.090974656823091
44	34	13	-0.033115560831503
44	35	14	-0.068554084743372
44	36	15	0.11005666191923
44	37	16	-0.0072716927225702
44	38	17	-0.0019211272662503
44	39	18	-0.0193181160721
44	40	19	-0.049626549789682
44	41	20	0.0069276527757758
44	42	21	-0.029023469155655
44	43	22	0.087280574059115
44	44	23	-0.057007674621419
44	45	24	0.012441079688724
44	47	25	0.039307582711336
44	79	26	-0.0077676348155364
44	111	27	-0.0021263365377671
44	143	28	-0.041520484017674
44	175	29	0.020831904471851
45	23	3	4.1969020404599
45	25	4	4.2227533325449
45	26	5	6.1290727640351
45	27	6	4.8010772353101
45	28	7	1.8590773219798
45	29	8	1.5939237684727
45	30	9	1.9375465099774
45	31	10	1.4911566249716
45	32	11	1.7518530298121
45	33	12	1.9638053707661
45	34	13	1.6444335845931
45	35	14	1.5499001764969
45	36	15	2.0134421799823
45	37	16	1.7129041673602
45	38	17	1.7264229641883
45	39	18	1.6805402729162
45	40	19	1.5999261775777
45	41	20	1.7440120867353
45	42	21	1.6506250939771
45	43	22	1.9539097713622
45	44	23	1.5817274722509
45	45	24	1.759136965746
45	47	25	1.8309399495537
45	79	26	1.7101879534607
45	111	27	1.7244082681623
45	143	28	1.6210855053228
45	175	29	1.7812075816884
46	23	3	1.7627838934748
46	25	4	1.9231327411253
46	26	5	1.9859142236854
46	27	6	2.0741951449192
46	28	7	1.8409302923991
46	29	8	-0.14775125255987
46	30	9	-4.4692780884458
46	31	10	-0.94285908455592
46	32	11	2.0656465263874
46	33	12	2.0598795351619
46	34	13	1.7676347218989
46	35	14	0.55428072630675
46	36	15	-0.055369968006852
46	37	16	-3.8716850366485
46	38	17	-3.7850164494428
46	39	18	2.2653478555498
46	40	19	1.9688259175536
46	41	20	-4.2380642785766
46	42	21	2.2687297259993
46	43	22	1.9653242473933
46	44	23	1.9496114647854
46	45	24	1.5341764160687
46	47	25	-0.088563387596514
46	79	26	0.10761140870862
46	111	27	-0.049219381089788
46	143	28	0.011862933565864
46	175	29	0.037844886274542
47	23	3	3.6732711830147
47	25	4	4.8872253530665
47	26	5	6.0822438420077
47	27	6	7.4785445817584
47	28	7	7.8220849909985
47	29	8	1.4810071733798
47	30	9	0.973
47	31	10	0.973
47	32	11	6.5012606380096
47	33	12	7.6758555523295
47	34	13	7.7632888057021
47	35	14	3.9325370985764
47	36	15	1.8559784449612
47	37	16	0.973
47	38	17	0.973
47	39	18	6.3112603065439
47	40	19	6.7729251812871
47	41	20	0.973
47	42	21	6.3179994330778
47	43	22	6.7617432911859
47	44	23	7.8044036703638
47	45	24	7.2631036679726
47	47	25	1.741080358834
47	79	26	2.4174655801078
47	111	27	1.879264102842
47	143	28	2.0876625043043
47	175	29	2.1801026610285
48	23	3	1.9895973576722
48	25	4	1.7840806230088
48	26	5	1.7674496121122
48	27	6	1.8750365483388
48	28	7	-2.6322104374216
48	29	8	-1.66
48	30	9	2.1391404237947
48	31	10	1.8446057151025
48	32	11	1.9952343060775
48	33	12	-1.1833111166049
48	34	13	-4.4985997297056
48	35	14	-4.5
48	36	15	-2.9191701041329
48	37	16	0
48	38	17	0
48	39	18	0
48	40	19	0
48	41	20	0
48	42	21	0
48	43	22	0
48	44	23	0
48	45	24	0
48	47	25	0
48	79	26	0
48	111	27	0
48	143	28	0
48	175	29	0
49	23	3	4.2897617802794
49	25	4	4.8698785035168
49	26	5	5.7136693460574
49	27	6	6.9559481114885
49	28	7	0.973
49	29	8	0.973
49	30	9	6.4046165482739
49	31	10	6.7093898809724
49	32	11	8.249397691709
49	33	12	0.973
49	34	13	0.973
49	35	14	0.973
49	36	15	0.973
49	37	16	0.973
49	38	17	0.973
49	39	18	0.973
49	40	19	0.973
49	41	20	0.973
49	42	21	0.973
49	43	22	0.973
49	44	23	0.973
49	45	24	0.973
49	47	25	0.973
49	79	26	0.973
49	111	27	0.973
49	143	28	0.973
49	175	29	0.973
50	23	3	2.0322590058157
50	25	4	1.796969915994
50	26	5	2.0916478801169
50	27	6	0.6010399343612
50	28	7	-0.066138768838719
50	29	8	-0.013373485894407
50	30	9	0.036239249773541
50	31	10	-3.0102844039556
50	32	11	2.1625393844745
50	33	12	0.92017630214086
50	34	13	-0.118404481709
50	35	14	0.059650203562342
50	36	15	0.045521741504782
50	37	16	-0.088524556315971
50	38	17	0.062597699782346
50	39	18	-3.0715535743357
50	40	19	1.5570273257769
50	41	20	2.2492343768082
50	42	21	1.9209226979944
50	43	22	2.0731160978694
50	44	23	0.8557044126689
50	45	24	-3.2190119160578
50	47	25	-2.3413630099943
50	79	26	-0.060593731102999
50	111	27	0.018742307757492
50	143	28	-0.025324987727217
50	175	29	-0.02515362556791
51	23	3	4.1054778315788
51	25	4	4.677087821507
51	26	5	6.3942372632051
51	27	6	3.1395007887329
51	28	7	1.5231079873174
51	29	8	1.6488197550759
51	30	9	1.770834547037
51	31	10	0.973
51	32	11	6.3832563858246
51	33	12	3.9194715577882
51	34	13	1.3965368690023
51	35	14	1.8284043722619
51	36	15	1.798322069464
51	37	16	1.4690118713087
51	38	17	1.8372916231742
51	39	18	0.973
51	40	19	4.767944991162
51	41	20	7.5723178732854
51	42	21	7.7766650049693
51	43	22	9.4855038357078
51	44	23	5.4311928667106
51	45	24	0.973
51	47	25	0.973
51	79	26	1.5376214063804
51	111	27	1.729977136755
51	143	28	1.6220038542673
51	175	29	1.6206630013957
52	25	4	2.2615134208564
52	26	5	4.3302987156598
52	27	6	6.2758017303468
52	28	7	8.1976042432593
52	29	8	10.105502567161
52	30	9	11.961711736154
52	31	10	13.938153779467
52	32	11	14.534158220328
52	33	12	14.436008098846
52	34	13	13.692052856733
52	35	14	9.3655780861411
52	36	15	9.2557333628531
52	37	16	9.3662130654883
52	38	17	9.2791826647288
52	39	18	9.2869931246551
52	40	19	9.3092057310185
52	41	20	9.2954355155794
52	42	21	9.3338886776358
52	43	22	9.2968406936155
52	44	23	9.2936558730366
52	45	24	9.2499878727925
52	47	25	9.2608657522035
52	79	26	9.332752411929
52	111	27	9.307163812765
52	143	28	9.3218896596996
52	175	29	9.3143668158702
53	26	5	2.0687852948034
53	27	6	1.945503014687
53	28	7	1.9218025129125
53	29	8	1.9078983239015
53	30	9	1.8562091689929
53	31	10	1.9764420433133
53	32	11	0.59600444086054
53	33	12	-0.098150121481158
53	34	13	-0.74395524211296
53	35	14	-4.3264747705923
53	36	15	-0.10984472328797
53	37	16	0.1104797026352
53	38	17	-0.08703040075954
53	39	18	0.0078104599262581
53	40	19	0.022212606363464
53	41	20	-0.013770215439143
53	42	21	0.038453162056394
53	43	22	-0.037047984020319
53	44	23	-0.0031848205789
53	45	24	-0.04366800024407
53	47	25	0.010877879410982
53	79	26	0.071886659725569
53	111	27	-0.025588599164038
53	143	28	0.014725846934597
53	175	29	-0.0075228438293564
54	26	5	3.4853831841187
54	27	6	4.3780900639914
54	28	7	5.3530990766427
54	29	8	6.3393685523487
54	30	9	7.1961693526921
54	31	10	8.6715762980979
54	32	11	4.1823952836997
54	33	12	1.7428374227166
54	34	13	0.973
54	35	14	0.973
54	36	15	1.3847230410692
54	37	16	1.8871112614232
54	38	17	1.4368108968757
54	39	18	1.6494799147441
54	40	19	1.6834369540613
54	41	20	1.6017600170471
54	42	21	1.7218867741106
54	43	22	1.5497020539015
54	44	23	1.6253463269689
54	45	24	1.5319859187599
54	47	25	1.6543936721104
54	79	26	1.7969923993477
54	111	27	1.5760591212847
54	143	28	1.6676022027325
54	175	29	1.6170885553285

